** Layout Netlist, pvs precompare
** 

.subckt sar_wsamp ADCOUT<0> ADCOUT<1> ADCOUT<2> ADCOUT<3> ADCOUT<4> ADCOUT<5> ADCOUT<6> ADCOUT<7> ADCOUT<8> CKDSEL0<0> CKDSEL0<1> CKDSEL1<0> CKDSEL1<1> CLK CLKO CLKPRB_SAMP DONE EXTSEL_CLK ICLK INM 
+ INP OSM OSP PHI0 SAMPM SAMPP SAOM SAOP SARCLK SARCLKB SB<0> SB<1> SB<2> SB<3> SB<4> SB<5> SB<6> SB<7> SB<8> UP 
+ VDDSAMP VDDSAR VOL<0> VOL<1> VOL<2> VOL<3> VOL<4> VOL<5> VOL<6> VOL<7> VOR<0> VOR<1> VOR<2> VOR<3> VOR<4> VOR<5> VOR<6> VOR<7> VREF<0> VREF<1> 
+ VREF<2> VSS ZM<0> ZM<1> ZM<2> ZM<3> ZM<4> ZM<5> ZM<6> ZM<7> ZM<8> ZMID<0> ZMID<1> ZMID<2> ZMID<3> ZMID<4> ZMID<5> ZMID<7> ZP<0> ZP<1> 
+ ZP<3> ZP<4> ZP<5> ZP<7> ZP<8> 
RX81/X76/X50/R0 SAMPP SAMPP RESM4 L=3.2e-08 W=3.2e-08 m=1 R=0.0604 
RX81/X76/X51/R0 SAMPP SAMPP RESM4 L=3.2e-08 W=3.2e-08 m=1 R=0.0604 
RX81/X76/X52/R0 SAMPP SAMPP RESM4 L=3.2e-08 W=3.2e-08 m=1 R=0.0604 
RX81/X76/X53/R0 SAMPP SAMPP RESM4 L=3.2e-08 W=3.2e-08 m=1 R=0.0604 
RX81/X76/X54/R0 SAMPP SAMPP RESM4 L=3.2e-08 W=3.2e-08 m=1 R=0.0604 
RX81/X76/X55/R0 SAMPP SAMPP RESM4 L=3.2e-08 W=3.2e-08 m=1 R=0.0604 
RX81/X76/X56/R0 SAMPP SAMPP RESM4 L=3.2e-08 W=3.2e-08 m=1 R=0.0604 
RX81/X76/X57/R0 SAMPP SAMPP RESM4 L=3.2e-08 W=3.2e-08 m=1 R=0.0604 
RX81/X76/X58/R0 SAMPP SAMPP RESM4 L=3.2e-08 W=3.2e-08 m=1 R=0.0604 
RX81/X76/X59/R0 SAMPP SAMPP RESM4 L=3.2e-08 W=3.2e-08 m=1 R=0.0604 
RX81/X76/X60/R0 SAMPP SAMPP RESM4 L=3.2e-08 W=3.2e-08 m=1 R=0.0604 
RX81/X76/X61/R0 SAMPP SAMPP RESM4 L=3.2e-08 W=3.2e-08 m=1 R=0.0604 
RX81/X76/X62/R0 SAMPP SAMPP RESM4 L=3.2e-08 W=3.2e-08 m=1 R=0.0604 
RX81/X76/X63/R0 SAMPP SAMPP RESM4 L=3.2e-08 W=3.2e-08 m=1 R=0.0604 
RX81/X76/X64/R0 SAMPP SAMPP RESM4 L=3.2e-08 W=3.2e-08 m=1 R=0.0604 
RX81/X76/X65/R0 SAMPP SAMPP RESM4 L=3.2e-08 W=3.2e-08 m=1 R=0.0604 
RX81/X76/X66/R0 SAMPP SAMPP RESM4 L=3.2e-08 W=3.2e-08 m=1 R=0.0604 
RX81/X76/X67/R0 SAMPP SAMPP RESM4 L=3.2e-08 W=3.2e-08 m=1 R=0.0604 
RX81/X76/X68/R0 SAMPP SAMPP RESM4 L=3.2e-08 W=3.2e-08 m=1 R=0.0604 
RX81/X76/X69/R0 SAMPP SAMPP RESM4 L=3.2e-08 W=3.2e-08 m=1 R=0.0604 
RX81/X76/X70/R0 SAMPP SAMPP RESM4 L=3.2e-08 W=3.2e-08 m=1 R=0.0604 
RX81/X76/X71/R0 SAMPP SAMPP RESM4 L=3.2e-08 W=3.2e-08 m=1 R=0.0604 
RX81/X76/X72/R0 SAMPP SAMPP RESM4 L=3.2e-08 W=3.2e-08 m=1 R=0.0604 
RX81/X76/X73/R0 SAMPP SAMPP RESM4 L=3.2e-08 W=3.2e-08 m=1 R=0.0604 
RX81/X76/X74/R0 SAMPP SAMPP RESM4 L=3.2e-08 W=3.2e-08 m=1 R=0.0604 
RX81/X76/X75/R0 SAMPP SAMPP RESM4 L=3.2e-08 W=3.2e-08 m=1 R=0.0604 
RX81/X76/X76/R0 SAMPP SAMPP RESM4 L=3.2e-08 W=3.2e-08 m=1 R=0.0604 
RX81/X76/X77/R0 SAMPP SAMPP RESM4 L=3.2e-08 W=3.2e-08 m=1 R=0.0604 
RX81/X76/X78/R0 SAMPP SAMPP RESM4 L=3.2e-08 W=3.2e-08 m=1 R=0.0604 
RX81/X76/X79/R0 SAMPP SAMPP RESM4 L=3.2e-08 W=3.2e-08 m=1 R=0.0604 
RX81/X76/X80/R0 SAMPP SAMPP RESM4 L=3.2e-08 W=3.2e-08 m=1 R=0.0604 
RX81/X76/X81/R0 SAMPP SAMPP RESM4 L=3.2e-08 W=3.2e-08 m=1 R=0.0604 
RX81/X76/X82/R0 SAMPP SAMPP RESM4 L=3.2e-08 W=3.2e-08 m=1 R=0.0604 
RX81/X76/X83/R0 SAMPP SAMPP RESM4 L=3.2e-08 W=3.2e-08 m=1 R=0.0604 
RX81/X76/X84/R0 SAMPP SAMPP RESM4 L=3.2e-08 W=3.2e-08 m=1 R=0.0604 
RX81/X76/X85/R0 SAMPP SAMPP RESM4 L=3.2e-08 W=3.2e-08 m=1 R=0.0604 
RX81/X76/X86/R0 SAMPP SAMPP RESM4 L=3.2e-08 W=3.2e-08 m=1 R=0.0604 
RX81/X76/X87/R0 SAMPP SAMPP RESM4 L=3.2e-08 W=3.2e-08 m=1 R=0.0604 
RX81/X76/X88/R0 SAMPP SAMPP RESM4 L=3.2e-08 W=3.2e-08 m=1 R=0.0604 
RX81/X76/X89/R0 SAMPP SAMPP RESM4 L=3.2e-08 W=3.2e-08 m=1 R=0.0604 
RX81/X76/X90/R0 SAMPP SAMPP RESM4 L=3.2e-08 W=3.2e-08 m=1 R=0.0604 
RX81/X76/X91/R0 SAMPP SAMPP RESM4 L=3.2e-08 W=3.2e-08 m=1 R=0.0604 
RX81/X76/X92/R0 SAMPP SAMPP RESM4 L=3.2e-08 W=3.2e-08 m=1 R=0.0604 
RX81/X76/X93/R0 SAMPP SAMPP RESM4 L=3.2e-08 W=3.2e-08 m=1 R=0.0604 
RX81/X76/X94/R0 SAMPP SAMPP RESM4 L=3.2e-08 W=3.2e-08 m=1 R=0.0604 
RX81/X76/X95/R0 SAMPP SAMPP RESM4 L=3.2e-08 W=3.2e-08 m=1 R=0.0604 
RX81/X76/X96/R0 SAMPP SAMPP RESM4 L=3.2e-08 W=3.2e-08 m=1 R=0.0604 
RX81/X76/X97/R0 SAMPP SAMPP RESM4 L=3.2e-08 W=3.2e-08 m=1 R=0.0604 
RX81/X76/X98/R0 SAMPP SAMPP RESM4 L=3.2e-08 W=3.2e-08 m=1 R=0.0604 
RX81/X76/X99/R0 SAMPP SAMPP RESM4 L=3.2e-08 W=3.2e-08 m=1 R=0.0604 
RX81/X76/X100/R0 SAMPP SAMPP RESM4 L=3.2e-08 W=3.2e-08 m=1 R=0.0604 
RX81/X76/X101/R0 SAMPP SAMPP RESM4 L=3.2e-08 W=3.2e-08 m=1 R=0.0604 
RX81/X76/X102/R0 SAMPP SAMPP RESM4 L=3.2e-08 W=3.2e-08 m=1 R=0.0604 
RX81/X76/X103/R0 SAMPP SAMPP RESM4 L=3.2e-08 W=3.2e-08 m=1 R=0.0604 
RX81/X76/X104/R0 SAMPP SAMPP RESM4 L=3.2e-08 W=3.2e-08 m=1 R=0.0604 
RX81/X76/X105/R0 SAMPP SAMPP RESM4 L=3.2e-08 W=3.2e-08 m=1 R=0.0604 
RX81/X76/X106/R0 SAMPP SAMPP RESM4 L=3.2e-08 W=3.2e-08 m=1 R=0.0604 
RX81/X76/X107/R0 SAMPP SAMPP RESM4 L=3.2e-08 W=3.2e-08 m=1 R=0.0604 
RX81/X76/X108/R0 SAMPP SAMPP RESM4 L=3.2e-08 W=3.2e-08 m=1 R=0.0604 
RX81/X76/X109/R0 SAMPP SAMPP RESM4 L=3.2e-08 W=3.2e-08 m=1 R=0.0604 
RX81/X76/X110/R0 SAMPP SAMPP RESM4 L=3.2e-08 W=3.2e-08 m=1 R=0.0604 
RX81/X76/X111/R0 SAMPP SAMPP RESM4 L=3.2e-08 W=3.2e-08 m=1 R=0.0604 
RX81/X76/X112/R0 SAMPP SAMPP RESM4 L=3.2e-08 W=3.2e-08 m=1 R=0.0604 
RX81/X76/X113/R0 SAMPP SAMPP RESM4 L=3.2e-08 W=3.2e-08 m=1 R=0.0604 
RX81/X76/X114/R0 SAMPP SAMPP RESM4 L=3.2e-08 W=3.2e-08 m=1 R=0.0604 
RX81/X76/X115/R0 SAMPP SAMPP RESM4 L=3.2e-08 W=3.2e-08 m=1 R=0.0604 
RX81/X76/X116/R0 SAMPP SAMPP RESM4 L=3.2e-08 W=3.2e-08 m=1 R=0.0604 
RX81/X76/X117/R0 SAMPP SAMPP RESM4 L=3.2e-08 W=3.2e-08 m=1 R=0.0604 
RX81/X76/X118/R0 SAMPP SAMPP RESM4 L=3.2e-08 W=3.2e-08 m=1 R=0.0604 
RX81/X76/X119/R0 SAMPP SAMPP RESM4 L=3.2e-08 W=3.2e-08 m=1 R=0.0604 
RX81/X76/X120/R0 SAMPP SAMPP RESM4 L=3.2e-08 W=3.2e-08 m=1 R=0.0604 
RX81/X76/X121/R0 SAMPP SAMPP RESM4 L=3.2e-08 W=3.2e-08 m=1 R=0.0604 
RX81/X76/X122/R0 SAMPP SAMPP RESM4 L=3.2e-08 W=3.2e-08 m=1 R=0.0604 
RX81/X76/X123/R0 SAMPP SAMPP RESM4 L=3.2e-08 W=3.2e-08 m=1 R=0.0604 
RX81/X76/X124/R0 SAMPP SAMPP RESM4 L=3.2e-08 W=3.2e-08 m=1 R=0.0604 
RX81/X76/X125/R0 SAMPP SAMPP RESM4 L=3.2e-08 W=3.2e-08 m=1 R=0.0604 
RX81/X76/X126/R0 SAMPP SAMPP RESM4 L=3.2e-08 W=3.2e-08 m=1 R=0.0604 
RX81/X76/X127/R0 SAMPP SAMPP RESM4 L=3.2e-08 W=3.2e-08 m=1 R=0.0604 
RX81/X76/X128/R0 SAMPP SAMPP RESM4 L=3.2e-08 W=3.2e-08 m=1 R=0.0604 
RX81/X76/X129/R0 SAMPP SAMPP RESM4 L=3.2e-08 W=3.2e-08 m=1 R=0.0604 
RX81/X76/X130/R0 SAMPP SAMPP RESM4 L=3.2e-08 W=3.2e-08 m=1 R=0.0604 
RX81/X76/X131/R0 SAMPP SAMPP RESM4 L=3.2e-08 W=3.2e-08 m=1 R=0.0604 
RX81/X76/X132/R0 SAMPP SAMPP RESM4 L=3.2e-08 W=3.2e-08 m=1 R=0.0604 
RX81/X76/X133/R0 SAMPP SAMPP RESM4 L=3.2e-08 W=3.2e-08 m=1 R=0.0604 
RX81/X76/X134/R0 SAMPP SAMPP RESM4 L=3.2e-08 W=3.2e-08 m=1 R=0.0604 
RX81/X76/X135/R0 SAMPP SAMPP RESM4 L=3.2e-08 W=3.2e-08 m=1 R=0.0604 
RX81/X76/X136/R0 SAMPP SAMPP RESM4 L=3.2e-08 W=3.2e-08 m=1 R=0.0604 
RX81/X76/X137/R0 SAMPP SAMPP RESM4 L=3.2e-08 W=3.2e-08 m=1 R=0.0604 
RX81/X76/X138/R0 SAMPP SAMPP RESM4 L=3.2e-08 W=3.2e-08 m=1 R=0.0604 
RX81/X76/X139/R0 SAMPP SAMPP RESM4 L=3.2e-08 W=3.2e-08 m=1 R=0.0604 
RX81/X76/X140/R0 SAMPP SAMPP RESM4 L=3.2e-08 W=3.2e-08 m=1 R=0.0604 
RX81/X76/X141/R0 SAMPP SAMPP RESM4 L=3.2e-08 W=3.2e-08 m=1 R=0.0604 
RX81/X76/X142/R0 SAMPP SAMPP RESM4 L=3.2e-08 W=3.2e-08 m=1 R=0.0604 
RX81/X76/X143/R0 SAMPP SAMPP RESM4 L=3.2e-08 W=3.2e-08 m=1 R=0.0604 
RX81/X76/X144/R0 SAMPP SAMPP RESM4 L=3.2e-08 W=3.2e-08 m=1 R=0.0604 
RX81/X76/X145/R0 SAMPP SAMPP RESM4 L=3.2e-08 W=3.2e-08 m=1 R=0.0604 
RX81/X76/X146/R0 SAMPP SAMPP RESM4 L=3.2e-08 W=3.2e-08 m=1 R=0.0604 
RX81/X76/X147/R0 SAMPP SAMPP RESM4 L=3.2e-08 W=3.2e-08 m=1 R=0.0604 
RX81/X76/X148/R0 SAMPP SAMPP RESM4 L=3.2e-08 W=3.2e-08 m=1 R=0.0604 
RX81/X76/X149/R0 SAMPP SAMPP RESM4 L=3.2e-08 W=3.2e-08 m=1 R=0.0604 
RX81/X76/X150/R0 SAMPP SAMPP RESM4 L=3.2e-08 W=3.2e-08 m=1 R=0.0604 
RX81/X76/X151/R0 SAMPP SAMPP RESM4 L=3.2e-08 W=3.2e-08 m=1 R=0.0604 
RX81/X76/X152/R0 SAMPP SAMPP RESM4 L=3.2e-08 W=3.2e-08 m=1 R=0.0604 
RX81/X76/X153/R0 SAMPP SAMPP RESM4 L=3.2e-08 W=3.2e-08 m=1 R=0.0604 
RX81/X76/X154/R0 SAMPP SAMPP RESM4 L=3.2e-08 W=3.2e-08 m=1 R=0.0604 
RX81/X76/X155/R0 SAMPP SAMPP RESM4 L=3.2e-08 W=3.2e-08 m=1 R=0.0604 
RX81/X76/X156/R0 SAMPP SAMPP RESM4 L=3.2e-08 W=3.2e-08 m=1 R=0.0604 
RX81/X76/X157/R0 SAMPP SAMPP RESM4 L=3.2e-08 W=3.2e-08 m=1 R=0.0604 
RX81/X76/X158/R0 SAMPP SAMPP RESM4 L=3.2e-08 W=3.2e-08 m=1 R=0.0604 
RX81/X76/X159/R0 SAMPP SAMPP RESM4 L=3.2e-08 W=3.2e-08 m=1 R=0.0604 
RX81/X76/X160/R0 SAMPP SAMPP RESM4 L=3.2e-08 W=3.2e-08 m=1 R=0.0604 
RX81/X76/X161/R0 SAMPP SAMPP RESM4 L=3.2e-08 W=3.2e-08 m=1 R=0.0604 
RX81/X76/X162/R0 SAMPP SAMPP RESM4 L=3.2e-08 W=3.2e-08 m=1 R=0.0604 
RX81/X76/X163/R0 SAMPP SAMPP RESM4 L=3.2e-08 W=3.2e-08 m=1 R=0.0604 
RX81/X76/X164/R0 SAMPP SAMPP RESM4 L=3.2e-08 W=3.2e-08 m=1 R=0.0604 
RX81/X76/X165/R0 SAMPP SAMPP RESM4 L=3.2e-08 W=3.2e-08 m=1 R=0.0604 
RX81/X76/X166/R0 SAMPP SAMPP RESM4 L=3.2e-08 W=3.2e-08 m=1 R=0.0604 
RX81/X76/X167/R0 SAMPP SAMPP RESM4 L=3.2e-08 W=3.2e-08 m=1 R=0.0604 
RX81/X76/X168/R0 SAMPP SAMPP RESM4 L=3.2e-08 W=3.2e-08 m=1 R=0.0604 
RX81/X76/X169/R0 SAMPP SAMPP RESM4 L=3.2e-08 W=3.2e-08 m=1 R=0.0604 
RX81/X76/X170/R0 SAMPP SAMPP RESM4 L=3.2e-08 W=3.2e-08 m=1 R=0.0604 
RX81/X76/X171/R0 SAMPP SAMPP RESM4 L=3.2e-08 W=3.2e-08 m=1 R=0.0604 
RX81/X76/X172/R0 SAMPP SAMPP RESM4 L=3.2e-08 W=3.2e-08 m=1 R=0.0604 
RX81/X76/X173/R0 SAMPP SAMPP RESM4 L=3.2e-08 W=3.2e-08 m=1 R=0.0604 
RX81/X76/X174/R0 SAMPP SAMPP RESM4 L=3.2e-08 W=3.2e-08 m=1 R=0.0604 
RX81/X76/X175/R0 SAMPP SAMPP RESM4 L=3.2e-08 W=3.2e-08 m=1 R=0.0604 
RX81/X76/X176/R0 SAMPP SAMPP RESM4 L=3.2e-08 W=3.2e-08 m=1 R=0.0604 
RX81/X76/X177/R0 SAMPP SAMPP RESM4 L=3.2e-08 W=3.2e-08 m=1 R=0.0604 
RX81/X76/X178/R0 SAMPP SAMPP RESM4 L=3.2e-08 W=3.2e-08 m=1 R=0.0604 
RX81/X76/X179/R0 SAMPP SAMPP RESM4 L=3.2e-08 W=3.2e-08 m=1 R=0.0604 
RX81/X76/X180/R0 SAMPP SAMPP RESM4 L=3.2e-08 W=3.2e-08 m=1 R=0.0604 
RX81/X76/X181/R0 SAMPP SAMPP RESM4 L=3.2e-08 W=3.2e-08 m=1 R=0.0604 
RX81/X76/X182/R0 SAMPP SAMPP RESM4 L=3.2e-08 W=3.2e-08 m=1 R=0.0604 
RX81/X76/X183/R0 SAMPP SAMPP RESM4 L=3.2e-08 W=3.2e-08 m=1 R=0.0604 
RX81/X76/X184/R0 SAMPP SAMPP RESM4 L=3.2e-08 W=3.2e-08 m=1 R=0.0604 
RX81/X76/X185/R0 SAMPP SAMPP RESM4 L=3.2e-08 W=3.2e-08 m=1 R=0.0604 
RX81/X76/X186/R0 SAMPP SAMPP RESM4 L=3.2e-08 W=3.2e-08 m=1 R=0.0604 
RX81/X76/X187/R0 SAMPP SAMPP RESM4 L=3.2e-08 W=3.2e-08 m=1 R=0.0604 
RX81/X76/X188/R0 SAMPP SAMPP RESM4 L=3.2e-08 W=3.2e-08 m=1 R=0.0604 
RX81/X76/X189/R0 SAMPP SAMPP RESM4 L=3.2e-08 W=3.2e-08 m=1 R=0.0604 
RX81/X76/X190/R0 SAMPP SAMPP RESM4 L=3.2e-08 W=3.2e-08 m=1 R=0.0604 
RX81/X76/X191/R0 SAMPP SAMPP RESM4 L=3.2e-08 W=3.2e-08 m=1 R=0.0604 
RX81/X76/X192/R0 SAMPP SAMPP RESM4 L=3.2e-08 W=3.2e-08 m=1 R=0.0604 
RX81/X76/X193/R0 SAMPP SAMPP RESM4 L=3.2e-08 W=3.2e-08 m=1 R=0.0604 
RX81/X76/X194/R0 SAMPP SAMPP RESM4 L=3.2e-08 W=3.2e-08 m=1 R=0.0604 
RX81/X76/X195/R0 SAMPP SAMPP RESM4 L=3.2e-08 W=3.2e-08 m=1 R=0.0604 
RX81/X76/X196/R0 SAMPP SAMPP RESM4 L=3.2e-08 W=3.2e-08 m=1 R=0.0604 
RX81/X76/X197/R0 SAMPP SAMPP RESM4 L=3.2e-08 W=3.2e-08 m=1 R=0.0604 
RX81/X76/X198/R0 SAMPP SAMPP RESM4 L=3.2e-08 W=3.2e-08 m=1 R=0.0604 
RX81/X76/X199/R0 SAMPP SAMPP RESM4 L=3.2e-08 W=3.2e-08 m=1 R=0.0604 
RX81/X76/X200/R0 SAMPP SAMPP RESM4 L=3.2e-08 W=3.2e-08 m=1 R=0.0604 
RX81/X76/X201/R0 SAMPP SAMPP RESM4 L=3.2e-08 W=3.2e-08 m=1 R=0.0604 
RX81/X76/X202/R0 SAMPP SAMPP RESM4 L=3.2e-08 W=3.2e-08 m=1 R=0.0604 
RX81/X76/X203/R0 SAMPP SAMPP RESM4 L=3.2e-08 W=3.2e-08 m=1 R=0.0604 
RX81/X76/X204/R0 SAMPP SAMPP RESM4 L=3.2e-08 W=3.2e-08 m=1 R=0.0604 
RX81/X76/X205/R0 SAMPP SAMPP RESM4 L=3.2e-08 W=3.2e-08 m=1 R=0.0604 
RX81/X76/X206/R0 SAMPP SAMPP RESM4 L=3.2e-08 W=3.2e-08 m=1 R=0.0604 
RX81/X76/X207/R0 SAMPP SAMPP RESM4 L=3.2e-08 W=3.2e-08 m=1 R=0.0604 
RX81/X76/X208/R0 SAMPP SAMPP RESM4 L=3.2e-08 W=3.2e-08 m=1 R=0.0604 
RX81/X76/X209/R0 SAMPP SAMPP RESM4 L=3.2e-08 W=3.2e-08 m=1 R=0.0604 
RX81/X76/X210/R0 SAMPP SAMPP RESM4 L=3.2e-08 W=3.2e-08 m=1 R=0.0604 
RX81/X76/X211/R0 SAMPP SAMPP RESM4 L=3.2e-08 W=3.2e-08 m=1 R=0.0604 
RX81/X76/X212/R0 SAMPP SAMPP RESM4 L=3.2e-08 W=3.2e-08 m=1 R=0.0604 
RX81/X76/X213/R0 SAMPP SAMPP RESM4 L=3.2e-08 W=3.2e-08 m=1 R=0.0604 
RX81/X76/X214/R0 SAMPP SAMPP RESM4 L=3.2e-08 W=3.2e-08 m=1 R=0.0604 
RX81/X76/X215/R0 SAMPP SAMPP RESM4 L=3.2e-08 W=3.2e-08 m=1 R=0.0604 
RX81/X76/X216/R0 SAMPP SAMPP RESM4 L=3.2e-08 W=3.2e-08 m=1 R=0.0604 
RX81/X76/X217/R0 SAMPP SAMPP RESM4 L=3.2e-08 W=3.2e-08 m=1 R=0.0604 
RX81/X76/X218/R0 SAMPP SAMPP RESM4 L=3.2e-08 W=3.2e-08 m=1 R=0.0604 
RX81/X76/X219/R0 SAMPP SAMPP RESM4 L=3.2e-08 W=3.2e-08 m=1 R=0.0604 
RX81/X76/X220/R0 SAMPP SAMPP RESM4 L=3.2e-08 W=3.2e-08 m=1 R=0.0604 
RX81/X76/X221/R0 SAMPP SAMPP RESM4 L=3.2e-08 W=3.2e-08 m=1 R=0.0604 
RX81/X76/X222/R0 SAMPP SAMPP RESM4 L=3.2e-08 W=3.2e-08 m=1 R=0.0604 
RX81/X76/X223/R0 SAMPP SAMPP RESM4 L=3.2e-08 W=3.2e-08 m=1 R=0.0604 
RX81/X76/X224/R0 SAMPP SAMPP RESM4 L=3.2e-08 W=3.2e-08 m=1 R=0.0604 
RX81/X76/X225/R0 SAMPP SAMPP RESM4 L=3.2e-08 W=3.2e-08 m=1 R=0.0604 
RX81/X76/X226/R0 SAMPP SAMPP RESM4 L=3.2e-08 W=3.2e-08 m=1 R=0.0604 
RX81/X76/X227/R0 SAMPP SAMPP RESM4 L=3.2e-08 W=3.2e-08 m=1 R=0.0604 
RX81/X76/X228/R0 SAMPP SAMPP RESM4 L=3.2e-08 W=3.2e-08 m=1 R=0.0604 
RX81/X76/X229/R0 SAMPP SAMPP RESM4 L=3.2e-08 W=3.2e-08 m=1 R=0.0604 
RX81/X76/X230/R0 SAMPP SAMPP RESM4 L=3.2e-08 W=3.2e-08 m=1 R=0.0604 
RX81/X76/X231/R0 SAMPP SAMPP RESM4 L=3.2e-08 W=3.2e-08 m=1 R=0.0604 
RX81/X76/X232/R0 SAMPP SAMPP RESM4 L=3.2e-08 W=3.2e-08 m=1 R=0.0604 
RX81/X76/X233/R0 SAMPP SAMPP RESM4 L=3.2e-08 W=3.2e-08 m=1 R=0.0604 
RX81/X76/X234/R0 SAMPP SAMPP RESM4 L=3.2e-08 W=3.2e-08 m=1 R=0.0604 
RX81/X76/X235/R0 SAMPP SAMPP RESM4 L=3.2e-08 W=3.2e-08 m=1 R=0.0604 
RX81/X76/X236/R0 SAMPP SAMPP RESM4 L=3.2e-08 W=3.2e-08 m=1 R=0.0604 
RX81/X76/X237/R0 SAMPP SAMPP RESM4 L=3.2e-08 W=3.2e-08 m=1 R=0.0604 
RX81/X76/X238/R0 SAMPP SAMPP RESM4 L=3.2e-08 W=3.2e-08 m=1 R=0.0604 
RX81/X76/X239/R0 SAMPP SAMPP RESM4 L=3.2e-08 W=3.2e-08 m=1 R=0.0604 
RX81/X76/X240/R0 SAMPP SAMPP RESM4 L=3.2e-08 W=3.2e-08 m=1 R=0.0604 
RX81/X76/X241/R0 SAMPP SAMPP RESM4 L=3.2e-08 W=3.2e-08 m=1 R=0.0604 
RX81/X76/X242/R0 SAMPP SAMPP RESM4 L=3.2e-08 W=3.2e-08 m=1 R=0.0604 
RX81/X76/X243/R0 SAMPP SAMPP RESM4 L=3.2e-08 W=3.2e-08 m=1 R=0.0604 
RX81/X76/X244/R0 SAMPP SAMPP RESM4 L=3.2e-08 W=3.2e-08 m=1 R=0.0604 
RX81/X76/X245/R0 SAMPP SAMPP RESM4 L=3.2e-08 W=3.2e-08 m=1 R=0.0604 
RX81/X76/X246/R0 SAMPP SAMPP RESM4 L=3.2e-08 W=3.2e-08 m=1 R=0.0604 
RX81/X76/X247/R0 SAMPP SAMPP RESM4 L=3.2e-08 W=3.2e-08 m=1 R=0.0604 
RX81/X76/X248/R0 SAMPP SAMPP RESM4 L=3.2e-08 W=3.2e-08 m=1 R=0.0604 
RX81/X76/X249/R0 SAMPP SAMPP RESM4 L=3.2e-08 W=3.2e-08 m=1 R=0.0604 
RX81/X76/X250/R0 SAMPP SAMPP RESM4 L=3.2e-08 W=3.2e-08 m=1 R=0.0604 
RX81/X76/X251/R0 SAMPP SAMPP RESM4 L=3.2e-08 W=3.2e-08 m=1 R=0.0604 
RX81/X76/X252/R0 SAMPP SAMPP RESM4 L=3.2e-08 W=3.2e-08 m=1 R=0.0604 
RX81/X76/X253/R0 SAMPP SAMPP RESM4 L=3.2e-08 W=3.2e-08 m=1 R=0.0604 
RX81/X76/X254/R0 SAMPP SAMPP RESM4 L=3.2e-08 W=3.2e-08 m=1 R=0.0604 
RX81/X76/X255/R0 SAMPP SAMPP RESM4 L=3.2e-08 W=3.2e-08 m=1 R=0.0604 
RX81/X76/X256/R0 SAMPP SAMPP RESM4 L=3.2e-08 W=3.2e-08 m=1 R=0.0604 
RX81/X76/X257/R0 SAMPP SAMPP RESM4 L=3.2e-08 W=3.2e-08 m=1 R=0.0604 
RX81/X76/X258/R0 SAMPP SAMPP RESM4 L=3.2e-08 W=3.2e-08 m=1 R=0.0604 
RX81/X76/X259/R0 SAMPP SAMPP RESM4 L=3.2e-08 W=3.2e-08 m=1 R=0.0604 
RX81/X76/X260/R0 SAMPP SAMPP RESM4 L=3.2e-08 W=3.2e-08 m=1 R=0.0604 
RX81/X76/X261/R0 SAMPP SAMPP RESM4 L=3.2e-08 W=3.2e-08 m=1 R=0.0604 
RX81/X76/X262/R0 SAMPP SAMPP RESM4 L=3.2e-08 W=3.2e-08 m=1 R=0.0604 
RX81/X77/X50/R0 SAMPM SAMPM RESM4 L=3.2e-08 W=3.2e-08 m=1 R=0.0604 
RX81/X77/X51/R0 SAMPM SAMPM RESM4 L=3.2e-08 W=3.2e-08 m=1 R=0.0604 
RX81/X77/X52/R0 SAMPM SAMPM RESM4 L=3.2e-08 W=3.2e-08 m=1 R=0.0604 
RX81/X77/X53/R0 SAMPM SAMPM RESM4 L=3.2e-08 W=3.2e-08 m=1 R=0.0604 
RX81/X77/X54/R0 SAMPM SAMPM RESM4 L=3.2e-08 W=3.2e-08 m=1 R=0.0604 
RX81/X77/X55/R0 SAMPM SAMPM RESM4 L=3.2e-08 W=3.2e-08 m=1 R=0.0604 
RX81/X77/X56/R0 SAMPM SAMPM RESM4 L=3.2e-08 W=3.2e-08 m=1 R=0.0604 
RX81/X77/X57/R0 SAMPM SAMPM RESM4 L=3.2e-08 W=3.2e-08 m=1 R=0.0604 
RX81/X77/X58/R0 SAMPM SAMPM RESM4 L=3.2e-08 W=3.2e-08 m=1 R=0.0604 
RX81/X77/X59/R0 SAMPM SAMPM RESM4 L=3.2e-08 W=3.2e-08 m=1 R=0.0604 
RX81/X77/X60/R0 SAMPM SAMPM RESM4 L=3.2e-08 W=3.2e-08 m=1 R=0.0604 
RX81/X77/X61/R0 SAMPM SAMPM RESM4 L=3.2e-08 W=3.2e-08 m=1 R=0.0604 
RX81/X77/X62/R0 SAMPM SAMPM RESM4 L=3.2e-08 W=3.2e-08 m=1 R=0.0604 
RX81/X77/X63/R0 SAMPM SAMPM RESM4 L=3.2e-08 W=3.2e-08 m=1 R=0.0604 
RX81/X77/X64/R0 SAMPM SAMPM RESM4 L=3.2e-08 W=3.2e-08 m=1 R=0.0604 
RX81/X77/X65/R0 SAMPM SAMPM RESM4 L=3.2e-08 W=3.2e-08 m=1 R=0.0604 
RX81/X77/X66/R0 SAMPM SAMPM RESM4 L=3.2e-08 W=3.2e-08 m=1 R=0.0604 
RX81/X77/X67/R0 SAMPM SAMPM RESM4 L=3.2e-08 W=3.2e-08 m=1 R=0.0604 
RX81/X77/X68/R0 SAMPM SAMPM RESM4 L=3.2e-08 W=3.2e-08 m=1 R=0.0604 
RX81/X77/X69/R0 SAMPM SAMPM RESM4 L=3.2e-08 W=3.2e-08 m=1 R=0.0604 
RX81/X77/X70/R0 SAMPM SAMPM RESM4 L=3.2e-08 W=3.2e-08 m=1 R=0.0604 
RX81/X77/X71/R0 SAMPM SAMPM RESM4 L=3.2e-08 W=3.2e-08 m=1 R=0.0604 
RX81/X77/X72/R0 SAMPM SAMPM RESM4 L=3.2e-08 W=3.2e-08 m=1 R=0.0604 
RX81/X77/X73/R0 SAMPM SAMPM RESM4 L=3.2e-08 W=3.2e-08 m=1 R=0.0604 
RX81/X77/X74/R0 SAMPM SAMPM RESM4 L=3.2e-08 W=3.2e-08 m=1 R=0.0604 
RX81/X77/X75/R0 SAMPM SAMPM RESM4 L=3.2e-08 W=3.2e-08 m=1 R=0.0604 
RX81/X77/X76/R0 SAMPM SAMPM RESM4 L=3.2e-08 W=3.2e-08 m=1 R=0.0604 
RX81/X77/X77/R0 SAMPM SAMPM RESM4 L=3.2e-08 W=3.2e-08 m=1 R=0.0604 
RX81/X77/X78/R0 SAMPM SAMPM RESM4 L=3.2e-08 W=3.2e-08 m=1 R=0.0604 
RX81/X77/X79/R0 SAMPM SAMPM RESM4 L=3.2e-08 W=3.2e-08 m=1 R=0.0604 
RX81/X77/X80/R0 SAMPM SAMPM RESM4 L=3.2e-08 W=3.2e-08 m=1 R=0.0604 
RX81/X77/X81/R0 SAMPM SAMPM RESM4 L=3.2e-08 W=3.2e-08 m=1 R=0.0604 
RX81/X77/X82/R0 SAMPM SAMPM RESM4 L=3.2e-08 W=3.2e-08 m=1 R=0.0604 
RX81/X77/X83/R0 SAMPM SAMPM RESM4 L=3.2e-08 W=3.2e-08 m=1 R=0.0604 
RX81/X77/X84/R0 SAMPM SAMPM RESM4 L=3.2e-08 W=3.2e-08 m=1 R=0.0604 
RX81/X77/X85/R0 SAMPM SAMPM RESM4 L=3.2e-08 W=3.2e-08 m=1 R=0.0604 
RX81/X77/X86/R0 SAMPM SAMPM RESM4 L=3.2e-08 W=3.2e-08 m=1 R=0.0604 
RX81/X77/X87/R0 SAMPM SAMPM RESM4 L=3.2e-08 W=3.2e-08 m=1 R=0.0604 
RX81/X77/X88/R0 SAMPM SAMPM RESM4 L=3.2e-08 W=3.2e-08 m=1 R=0.0604 
RX81/X77/X89/R0 SAMPM SAMPM RESM4 L=3.2e-08 W=3.2e-08 m=1 R=0.0604 
RX81/X77/X90/R0 SAMPM SAMPM RESM4 L=3.2e-08 W=3.2e-08 m=1 R=0.0604 
RX81/X77/X91/R0 SAMPM SAMPM RESM4 L=3.2e-08 W=3.2e-08 m=1 R=0.0604 
RX81/X77/X92/R0 SAMPM SAMPM RESM4 L=3.2e-08 W=3.2e-08 m=1 R=0.0604 
RX81/X77/X93/R0 SAMPM SAMPM RESM4 L=3.2e-08 W=3.2e-08 m=1 R=0.0604 
RX81/X77/X94/R0 SAMPM SAMPM RESM4 L=3.2e-08 W=3.2e-08 m=1 R=0.0604 
RX81/X77/X95/R0 SAMPM SAMPM RESM4 L=3.2e-08 W=3.2e-08 m=1 R=0.0604 
RX81/X77/X96/R0 SAMPM SAMPM RESM4 L=3.2e-08 W=3.2e-08 m=1 R=0.0604 
RX81/X77/X97/R0 SAMPM SAMPM RESM4 L=3.2e-08 W=3.2e-08 m=1 R=0.0604 
RX81/X77/X98/R0 SAMPM SAMPM RESM4 L=3.2e-08 W=3.2e-08 m=1 R=0.0604 
RX81/X77/X99/R0 SAMPM SAMPM RESM4 L=3.2e-08 W=3.2e-08 m=1 R=0.0604 
RX81/X77/X100/R0 SAMPM SAMPM RESM4 L=3.2e-08 W=3.2e-08 m=1 R=0.0604 
RX81/X77/X101/R0 SAMPM SAMPM RESM4 L=3.2e-08 W=3.2e-08 m=1 R=0.0604 
RX81/X77/X102/R0 SAMPM SAMPM RESM4 L=3.2e-08 W=3.2e-08 m=1 R=0.0604 
RX81/X77/X103/R0 SAMPM SAMPM RESM4 L=3.2e-08 W=3.2e-08 m=1 R=0.0604 
RX81/X77/X104/R0 SAMPM SAMPM RESM4 L=3.2e-08 W=3.2e-08 m=1 R=0.0604 
RX81/X77/X105/R0 SAMPM SAMPM RESM4 L=3.2e-08 W=3.2e-08 m=1 R=0.0604 
RX81/X77/X106/R0 SAMPM SAMPM RESM4 L=3.2e-08 W=3.2e-08 m=1 R=0.0604 
RX81/X77/X107/R0 SAMPM SAMPM RESM4 L=3.2e-08 W=3.2e-08 m=1 R=0.0604 
RX81/X77/X108/R0 SAMPM SAMPM RESM4 L=3.2e-08 W=3.2e-08 m=1 R=0.0604 
RX81/X77/X109/R0 SAMPM SAMPM RESM4 L=3.2e-08 W=3.2e-08 m=1 R=0.0604 
RX81/X77/X110/R0 SAMPM SAMPM RESM4 L=3.2e-08 W=3.2e-08 m=1 R=0.0604 
RX81/X77/X111/R0 SAMPM SAMPM RESM4 L=3.2e-08 W=3.2e-08 m=1 R=0.0604 
RX81/X77/X112/R0 SAMPM SAMPM RESM4 L=3.2e-08 W=3.2e-08 m=1 R=0.0604 
RX81/X77/X113/R0 SAMPM SAMPM RESM4 L=3.2e-08 W=3.2e-08 m=1 R=0.0604 
RX81/X77/X114/R0 SAMPM SAMPM RESM4 L=3.2e-08 W=3.2e-08 m=1 R=0.0604 
RX81/X77/X115/R0 SAMPM SAMPM RESM4 L=3.2e-08 W=3.2e-08 m=1 R=0.0604 
RX81/X77/X116/R0 SAMPM SAMPM RESM4 L=3.2e-08 W=3.2e-08 m=1 R=0.0604 
RX81/X77/X117/R0 SAMPM SAMPM RESM4 L=3.2e-08 W=3.2e-08 m=1 R=0.0604 
RX81/X77/X118/R0 SAMPM SAMPM RESM4 L=3.2e-08 W=3.2e-08 m=1 R=0.0604 
RX81/X77/X119/R0 SAMPM SAMPM RESM4 L=3.2e-08 W=3.2e-08 m=1 R=0.0604 
RX81/X77/X120/R0 SAMPM SAMPM RESM4 L=3.2e-08 W=3.2e-08 m=1 R=0.0604 
RX81/X77/X121/R0 SAMPM SAMPM RESM4 L=3.2e-08 W=3.2e-08 m=1 R=0.0604 
RX81/X77/X122/R0 SAMPM SAMPM RESM4 L=3.2e-08 W=3.2e-08 m=1 R=0.0604 
RX81/X77/X123/R0 SAMPM SAMPM RESM4 L=3.2e-08 W=3.2e-08 m=1 R=0.0604 
RX81/X77/X124/R0 SAMPM SAMPM RESM4 L=3.2e-08 W=3.2e-08 m=1 R=0.0604 
RX81/X77/X125/R0 SAMPM SAMPM RESM4 L=3.2e-08 W=3.2e-08 m=1 R=0.0604 
RX81/X77/X126/R0 SAMPM SAMPM RESM4 L=3.2e-08 W=3.2e-08 m=1 R=0.0604 
RX81/X77/X127/R0 SAMPM SAMPM RESM4 L=3.2e-08 W=3.2e-08 m=1 R=0.0604 
RX81/X77/X128/R0 SAMPM SAMPM RESM4 L=3.2e-08 W=3.2e-08 m=1 R=0.0604 
RX81/X77/X129/R0 SAMPM SAMPM RESM4 L=3.2e-08 W=3.2e-08 m=1 R=0.0604 
RX81/X77/X130/R0 SAMPM SAMPM RESM4 L=3.2e-08 W=3.2e-08 m=1 R=0.0604 
RX81/X77/X131/R0 SAMPM SAMPM RESM4 L=3.2e-08 W=3.2e-08 m=1 R=0.0604 
RX81/X77/X132/R0 SAMPM SAMPM RESM4 L=3.2e-08 W=3.2e-08 m=1 R=0.0604 
RX81/X77/X133/R0 SAMPM SAMPM RESM4 L=3.2e-08 W=3.2e-08 m=1 R=0.0604 
RX81/X77/X134/R0 SAMPM SAMPM RESM4 L=3.2e-08 W=3.2e-08 m=1 R=0.0604 
RX81/X77/X135/R0 SAMPM SAMPM RESM4 L=3.2e-08 W=3.2e-08 m=1 R=0.0604 
RX81/X77/X136/R0 SAMPM SAMPM RESM4 L=3.2e-08 W=3.2e-08 m=1 R=0.0604 
RX81/X77/X137/R0 SAMPM SAMPM RESM4 L=3.2e-08 W=3.2e-08 m=1 R=0.0604 
RX81/X77/X138/R0 SAMPM SAMPM RESM4 L=3.2e-08 W=3.2e-08 m=1 R=0.0604 
RX81/X77/X139/R0 SAMPM SAMPM RESM4 L=3.2e-08 W=3.2e-08 m=1 R=0.0604 
RX81/X77/X140/R0 SAMPM SAMPM RESM4 L=3.2e-08 W=3.2e-08 m=1 R=0.0604 
RX81/X77/X141/R0 SAMPM SAMPM RESM4 L=3.2e-08 W=3.2e-08 m=1 R=0.0604 
RX81/X77/X142/R0 SAMPM SAMPM RESM4 L=3.2e-08 W=3.2e-08 m=1 R=0.0604 
RX81/X77/X143/R0 SAMPM SAMPM RESM4 L=3.2e-08 W=3.2e-08 m=1 R=0.0604 
RX81/X77/X144/R0 SAMPM SAMPM RESM4 L=3.2e-08 W=3.2e-08 m=1 R=0.0604 
RX81/X77/X145/R0 SAMPM SAMPM RESM4 L=3.2e-08 W=3.2e-08 m=1 R=0.0604 
RX81/X77/X146/R0 SAMPM SAMPM RESM4 L=3.2e-08 W=3.2e-08 m=1 R=0.0604 
RX81/X77/X147/R0 SAMPM SAMPM RESM4 L=3.2e-08 W=3.2e-08 m=1 R=0.0604 
RX81/X77/X148/R0 SAMPM SAMPM RESM4 L=3.2e-08 W=3.2e-08 m=1 R=0.0604 
RX81/X77/X149/R0 SAMPM SAMPM RESM4 L=3.2e-08 W=3.2e-08 m=1 R=0.0604 
RX81/X77/X150/R0 SAMPM SAMPM RESM4 L=3.2e-08 W=3.2e-08 m=1 R=0.0604 
RX81/X77/X151/R0 SAMPM SAMPM RESM4 L=3.2e-08 W=3.2e-08 m=1 R=0.0604 
RX81/X77/X152/R0 SAMPM SAMPM RESM4 L=3.2e-08 W=3.2e-08 m=1 R=0.0604 
RX81/X77/X153/R0 SAMPM SAMPM RESM4 L=3.2e-08 W=3.2e-08 m=1 R=0.0604 
RX81/X77/X154/R0 SAMPM SAMPM RESM4 L=3.2e-08 W=3.2e-08 m=1 R=0.0604 
RX81/X77/X155/R0 SAMPM SAMPM RESM4 L=3.2e-08 W=3.2e-08 m=1 R=0.0604 
RX81/X77/X156/R0 SAMPM SAMPM RESM4 L=3.2e-08 W=3.2e-08 m=1 R=0.0604 
RX81/X77/X157/R0 SAMPM SAMPM RESM4 L=3.2e-08 W=3.2e-08 m=1 R=0.0604 
RX81/X77/X158/R0 SAMPM SAMPM RESM4 L=3.2e-08 W=3.2e-08 m=1 R=0.0604 
RX81/X77/X159/R0 SAMPM SAMPM RESM4 L=3.2e-08 W=3.2e-08 m=1 R=0.0604 
RX81/X77/X160/R0 SAMPM SAMPM RESM4 L=3.2e-08 W=3.2e-08 m=1 R=0.0604 
RX81/X77/X161/R0 SAMPM SAMPM RESM4 L=3.2e-08 W=3.2e-08 m=1 R=0.0604 
RX81/X77/X162/R0 SAMPM SAMPM RESM4 L=3.2e-08 W=3.2e-08 m=1 R=0.0604 
RX81/X77/X163/R0 SAMPM SAMPM RESM4 L=3.2e-08 W=3.2e-08 m=1 R=0.0604 
RX81/X77/X164/R0 SAMPM SAMPM RESM4 L=3.2e-08 W=3.2e-08 m=1 R=0.0604 
RX81/X77/X165/R0 SAMPM SAMPM RESM4 L=3.2e-08 W=3.2e-08 m=1 R=0.0604 
RX81/X77/X166/R0 SAMPM SAMPM RESM4 L=3.2e-08 W=3.2e-08 m=1 R=0.0604 
RX81/X77/X167/R0 SAMPM SAMPM RESM4 L=3.2e-08 W=3.2e-08 m=1 R=0.0604 
RX81/X77/X168/R0 SAMPM SAMPM RESM4 L=3.2e-08 W=3.2e-08 m=1 R=0.0604 
RX81/X77/X169/R0 SAMPM SAMPM RESM4 L=3.2e-08 W=3.2e-08 m=1 R=0.0604 
RX81/X77/X170/R0 SAMPM SAMPM RESM4 L=3.2e-08 W=3.2e-08 m=1 R=0.0604 
RX81/X77/X171/R0 SAMPM SAMPM RESM4 L=3.2e-08 W=3.2e-08 m=1 R=0.0604 
RX81/X77/X172/R0 SAMPM SAMPM RESM4 L=3.2e-08 W=3.2e-08 m=1 R=0.0604 
RX81/X77/X173/R0 SAMPM SAMPM RESM4 L=3.2e-08 W=3.2e-08 m=1 R=0.0604 
RX81/X77/X174/R0 SAMPM SAMPM RESM4 L=3.2e-08 W=3.2e-08 m=1 R=0.0604 
RX81/X77/X175/R0 SAMPM SAMPM RESM4 L=3.2e-08 W=3.2e-08 m=1 R=0.0604 
RX81/X77/X176/R0 SAMPM SAMPM RESM4 L=3.2e-08 W=3.2e-08 m=1 R=0.0604 
RX81/X77/X177/R0 SAMPM SAMPM RESM4 L=3.2e-08 W=3.2e-08 m=1 R=0.0604 
RX81/X77/X178/R0 SAMPM SAMPM RESM4 L=3.2e-08 W=3.2e-08 m=1 R=0.0604 
RX81/X77/X179/R0 SAMPM SAMPM RESM4 L=3.2e-08 W=3.2e-08 m=1 R=0.0604 
RX81/X77/X180/R0 SAMPM SAMPM RESM4 L=3.2e-08 W=3.2e-08 m=1 R=0.0604 
RX81/X77/X181/R0 SAMPM SAMPM RESM4 L=3.2e-08 W=3.2e-08 m=1 R=0.0604 
RX81/X77/X182/R0 SAMPM SAMPM RESM4 L=3.2e-08 W=3.2e-08 m=1 R=0.0604 
RX81/X77/X183/R0 SAMPM SAMPM RESM4 L=3.2e-08 W=3.2e-08 m=1 R=0.0604 
RX81/X77/X184/R0 SAMPM SAMPM RESM4 L=3.2e-08 W=3.2e-08 m=1 R=0.0604 
RX81/X77/X185/R0 SAMPM SAMPM RESM4 L=3.2e-08 W=3.2e-08 m=1 R=0.0604 
RX81/X77/X186/R0 SAMPM SAMPM RESM4 L=3.2e-08 W=3.2e-08 m=1 R=0.0604 
RX81/X77/X187/R0 SAMPM SAMPM RESM4 L=3.2e-08 W=3.2e-08 m=1 R=0.0604 
RX81/X77/X188/R0 SAMPM SAMPM RESM4 L=3.2e-08 W=3.2e-08 m=1 R=0.0604 
RX81/X77/X189/R0 SAMPM SAMPM RESM4 L=3.2e-08 W=3.2e-08 m=1 R=0.0604 
RX81/X77/X190/R0 SAMPM SAMPM RESM4 L=3.2e-08 W=3.2e-08 m=1 R=0.0604 
RX81/X77/X191/R0 SAMPM SAMPM RESM4 L=3.2e-08 W=3.2e-08 m=1 R=0.0604 
RX81/X77/X192/R0 SAMPM SAMPM RESM4 L=3.2e-08 W=3.2e-08 m=1 R=0.0604 
RX81/X77/X193/R0 SAMPM SAMPM RESM4 L=3.2e-08 W=3.2e-08 m=1 R=0.0604 
RX81/X77/X194/R0 SAMPM SAMPM RESM4 L=3.2e-08 W=3.2e-08 m=1 R=0.0604 
RX81/X77/X195/R0 SAMPM SAMPM RESM4 L=3.2e-08 W=3.2e-08 m=1 R=0.0604 
RX81/X77/X196/R0 SAMPM SAMPM RESM4 L=3.2e-08 W=3.2e-08 m=1 R=0.0604 
RX81/X77/X197/R0 SAMPM SAMPM RESM4 L=3.2e-08 W=3.2e-08 m=1 R=0.0604 
RX81/X77/X198/R0 SAMPM SAMPM RESM4 L=3.2e-08 W=3.2e-08 m=1 R=0.0604 
RX81/X77/X199/R0 SAMPM SAMPM RESM4 L=3.2e-08 W=3.2e-08 m=1 R=0.0604 
RX81/X77/X200/R0 SAMPM SAMPM RESM4 L=3.2e-08 W=3.2e-08 m=1 R=0.0604 
RX81/X77/X201/R0 SAMPM SAMPM RESM4 L=3.2e-08 W=3.2e-08 m=1 R=0.0604 
RX81/X77/X202/R0 SAMPM SAMPM RESM4 L=3.2e-08 W=3.2e-08 m=1 R=0.0604 
RX81/X77/X203/R0 SAMPM SAMPM RESM4 L=3.2e-08 W=3.2e-08 m=1 R=0.0604 
RX81/X77/X204/R0 SAMPM SAMPM RESM4 L=3.2e-08 W=3.2e-08 m=1 R=0.0604 
RX81/X77/X205/R0 SAMPM SAMPM RESM4 L=3.2e-08 W=3.2e-08 m=1 R=0.0604 
RX81/X77/X206/R0 SAMPM SAMPM RESM4 L=3.2e-08 W=3.2e-08 m=1 R=0.0604 
RX81/X77/X207/R0 SAMPM SAMPM RESM4 L=3.2e-08 W=3.2e-08 m=1 R=0.0604 
RX81/X77/X208/R0 SAMPM SAMPM RESM4 L=3.2e-08 W=3.2e-08 m=1 R=0.0604 
RX81/X77/X209/R0 SAMPM SAMPM RESM4 L=3.2e-08 W=3.2e-08 m=1 R=0.0604 
RX81/X77/X210/R0 SAMPM SAMPM RESM4 L=3.2e-08 W=3.2e-08 m=1 R=0.0604 
RX81/X77/X211/R0 SAMPM SAMPM RESM4 L=3.2e-08 W=3.2e-08 m=1 R=0.0604 
RX81/X77/X212/R0 SAMPM SAMPM RESM4 L=3.2e-08 W=3.2e-08 m=1 R=0.0604 
RX81/X77/X213/R0 SAMPM SAMPM RESM4 L=3.2e-08 W=3.2e-08 m=1 R=0.0604 
RX81/X77/X214/R0 SAMPM SAMPM RESM4 L=3.2e-08 W=3.2e-08 m=1 R=0.0604 
RX81/X77/X215/R0 SAMPM SAMPM RESM4 L=3.2e-08 W=3.2e-08 m=1 R=0.0604 
RX81/X77/X216/R0 SAMPM SAMPM RESM4 L=3.2e-08 W=3.2e-08 m=1 R=0.0604 
RX81/X77/X217/R0 SAMPM SAMPM RESM4 L=3.2e-08 W=3.2e-08 m=1 R=0.0604 
RX81/X77/X218/R0 SAMPM SAMPM RESM4 L=3.2e-08 W=3.2e-08 m=1 R=0.0604 
RX81/X77/X219/R0 SAMPM SAMPM RESM4 L=3.2e-08 W=3.2e-08 m=1 R=0.0604 
RX81/X77/X220/R0 SAMPM SAMPM RESM4 L=3.2e-08 W=3.2e-08 m=1 R=0.0604 
RX81/X77/X221/R0 SAMPM SAMPM RESM4 L=3.2e-08 W=3.2e-08 m=1 R=0.0604 
RX81/X77/X222/R0 SAMPM SAMPM RESM4 L=3.2e-08 W=3.2e-08 m=1 R=0.0604 
RX81/X77/X223/R0 SAMPM SAMPM RESM4 L=3.2e-08 W=3.2e-08 m=1 R=0.0604 
RX81/X77/X224/R0 SAMPM SAMPM RESM4 L=3.2e-08 W=3.2e-08 m=1 R=0.0604 
RX81/X77/X225/R0 SAMPM SAMPM RESM4 L=3.2e-08 W=3.2e-08 m=1 R=0.0604 
RX81/X77/X226/R0 SAMPM SAMPM RESM4 L=3.2e-08 W=3.2e-08 m=1 R=0.0604 
RX81/X77/X227/R0 SAMPM SAMPM RESM4 L=3.2e-08 W=3.2e-08 m=1 R=0.0604 
RX81/X77/X228/R0 SAMPM SAMPM RESM4 L=3.2e-08 W=3.2e-08 m=1 R=0.0604 
RX81/X77/X229/R0 SAMPM SAMPM RESM4 L=3.2e-08 W=3.2e-08 m=1 R=0.0604 
RX81/X77/X230/R0 SAMPM SAMPM RESM4 L=3.2e-08 W=3.2e-08 m=1 R=0.0604 
RX81/X77/X231/R0 SAMPM SAMPM RESM4 L=3.2e-08 W=3.2e-08 m=1 R=0.0604 
RX81/X77/X232/R0 SAMPM SAMPM RESM4 L=3.2e-08 W=3.2e-08 m=1 R=0.0604 
RX81/X77/X233/R0 SAMPM SAMPM RESM4 L=3.2e-08 W=3.2e-08 m=1 R=0.0604 
RX81/X77/X234/R0 SAMPM SAMPM RESM4 L=3.2e-08 W=3.2e-08 m=1 R=0.0604 
RX81/X77/X235/R0 SAMPM SAMPM RESM4 L=3.2e-08 W=3.2e-08 m=1 R=0.0604 
RX81/X77/X236/R0 SAMPM SAMPM RESM4 L=3.2e-08 W=3.2e-08 m=1 R=0.0604 
RX81/X77/X237/R0 SAMPM SAMPM RESM4 L=3.2e-08 W=3.2e-08 m=1 R=0.0604 
RX81/X77/X238/R0 SAMPM SAMPM RESM4 L=3.2e-08 W=3.2e-08 m=1 R=0.0604 
RX81/X77/X239/R0 SAMPM SAMPM RESM4 L=3.2e-08 W=3.2e-08 m=1 R=0.0604 
RX81/X77/X240/R0 SAMPM SAMPM RESM4 L=3.2e-08 W=3.2e-08 m=1 R=0.0604 
RX81/X77/X241/R0 SAMPM SAMPM RESM4 L=3.2e-08 W=3.2e-08 m=1 R=0.0604 
RX81/X77/X242/R0 SAMPM SAMPM RESM4 L=3.2e-08 W=3.2e-08 m=1 R=0.0604 
RX81/X77/X243/R0 SAMPM SAMPM RESM4 L=3.2e-08 W=3.2e-08 m=1 R=0.0604 
RX81/X77/X244/R0 SAMPM SAMPM RESM4 L=3.2e-08 W=3.2e-08 m=1 R=0.0604 
RX81/X77/X245/R0 SAMPM SAMPM RESM4 L=3.2e-08 W=3.2e-08 m=1 R=0.0604 
RX81/X77/X246/R0 SAMPM SAMPM RESM4 L=3.2e-08 W=3.2e-08 m=1 R=0.0604 
RX81/X77/X247/R0 SAMPM SAMPM RESM4 L=3.2e-08 W=3.2e-08 m=1 R=0.0604 
RX81/X77/X248/R0 SAMPM SAMPM RESM4 L=3.2e-08 W=3.2e-08 m=1 R=0.0604 
RX81/X77/X249/R0 SAMPM SAMPM RESM4 L=3.2e-08 W=3.2e-08 m=1 R=0.0604 
RX81/X77/X250/R0 SAMPM SAMPM RESM4 L=3.2e-08 W=3.2e-08 m=1 R=0.0604 
RX81/X77/X251/R0 SAMPM SAMPM RESM4 L=3.2e-08 W=3.2e-08 m=1 R=0.0604 
RX81/X77/X252/R0 SAMPM SAMPM RESM4 L=3.2e-08 W=3.2e-08 m=1 R=0.0604 
RX81/X77/X253/R0 SAMPM SAMPM RESM4 L=3.2e-08 W=3.2e-08 m=1 R=0.0604 
RX81/X77/X254/R0 SAMPM SAMPM RESM4 L=3.2e-08 W=3.2e-08 m=1 R=0.0604 
RX81/X77/X255/R0 SAMPM SAMPM RESM4 L=3.2e-08 W=3.2e-08 m=1 R=0.0604 
RX81/X77/X256/R0 SAMPM SAMPM RESM4 L=3.2e-08 W=3.2e-08 m=1 R=0.0604 
RX81/X77/X257/R0 SAMPM SAMPM RESM4 L=3.2e-08 W=3.2e-08 m=1 R=0.0604 
RX81/X77/X258/R0 SAMPM SAMPM RESM4 L=3.2e-08 W=3.2e-08 m=1 R=0.0604 
RX81/X77/X259/R0 SAMPM SAMPM RESM4 L=3.2e-08 W=3.2e-08 m=1 R=0.0604 
RX81/X77/X260/R0 SAMPM SAMPM RESM4 L=3.2e-08 W=3.2e-08 m=1 R=0.0604 
RX81/X77/X261/R0 SAMPM SAMPM RESM4 L=3.2e-08 W=3.2e-08 m=1 R=0.0604 
RX81/X77/X262/R0 SAMPM SAMPM RESM4 L=3.2e-08 W=3.2e-08 m=1 R=0.0604 