** Schematic Netlist, pvs precompare
** 

.subckt sar_wsamp ADCOUT<8> ADCOUT<7> ADCOUT<6> ADCOUT<5> ADCOUT<4> ADCOUT<3> ADCOUT<2> ADCOUT<1> ADCOUT<0> CKDSEL0<1> CKDSEL0<0> CKDSEL1<1> CKDSEL1<0> CLK CLKO CLKPRB_SAMP DONE EXTSEL_CLK ICLK INM 
+ INP OSM OSP PHI0 SAMPM SAMPP SAOM SAOP SARCLK SARCLKB SB<8> SB<7> SB<6> SB<5> SB<4> SB<3> SB<2> SB<1> SB<0> UP 
+ VDDSAMP VDDSAR VOL<7> VOL<6> VOL<5> VOL<4> VOL<3> VOL<2> VOL<1> VOL<0> VOR<7> VOR<6> VOR<5> VOR<4> VOR<3> VOR<2> VOR<1> VOR<0> VREF<2> VREF<1> 
+ VREF<0> VSS ZM<8> ZM<7> ZM<6> ZM<5> ZM<4> ZM<3> ZM<2> ZM<1> ZM<0> ZMID<8> ZMID<7> ZMID<6> ZMID<5> ZMID<4> ZMID<3> ZMID<2> ZMID<1> ZMID<0> 
+ ZP<8> ZP<7> ZP<6> ZP<5> ZP<4> ZP<3> ZP<2> ZP<1> ZP<0> 
MXISAR0/XIABE0/XIRET0/XICKBUF3/XIN0/MM0 CLKO XISAR0/XIABE0/XIRET0/net06 VSS VSS N1LVT m=1 l=1.8e-08 nfin=4 nf=8 
MXISAR0/XIABE0/XIRET0/XICKBUF3/XIP0/MM0 CLKO XISAR0/XIABE0/XIRET0/net06 VDDSAR VDDSAR P1LVT m=1 l=1.8e-08 nfin=4 nf=8 
MXISAR0/XIABE0/XIRET0/XICKBUF1/XIN0/MM0 XISAR0/XIABE0/XIRET0/ICLK XISAR0/XIABE0/XIRET0/net2 VSS VSS N1LVT m=1 l=1.8e-08 nfin=4 nf=8 
MXISAR0/XIABE0/XIRET0/XICKBUF1/XIP0/MM0 XISAR0/XIABE0/XIRET0/ICLK XISAR0/XIABE0/XIRET0/net2 VDDSAR VDDSAR P1LVT m=1 l=1.8e-08 nfin=4 nf=8 
MXISAR0/XIABE0/XIRET0/XICKBUF0/XIN0/MM0 XISAR0/XIABE0/XIRET0/net2 ICLK VSS VSS N1LVT m=1 l=1.8e-08 nfin=4 nf=2 
MXISAR0/XIABE0/XIRET0/XICKBUF0/XIP0/MM0 XISAR0/XIABE0/XIRET0/net2 ICLK VDDSAR VDDSAR P1LVT m=1 l=1.8e-08 nfin=4 nf=2 
MXISAR0/XIABE0/XIRET0/XICKBUF2/XIN0/MM0 XISAR0/XIABE0/XIRET0/net06 XISAR0/XIABE0/XIRET0/ICLK VSS VSS N1LVT m=1 l=1.8e-08 nfin=4 nf=2 
MXISAR0/XIABE0/XIRET0/XICKBUF2/XIP0/MM0 XISAR0/XIABE0/XIRET0/net06 XISAR0/XIABE0/XIRET0/ICLK VDDSAR VDDSAR P1LVT m=1 l=1.8e-08 nfin=4 nf=2 
MXISAR0/XIABE0/XIRET0/XI7/XIINV2/XIN0/MM0 ADCOUT<7> XISAR0/XIABE0/XIRET0/XI7/net12 VSS VSS N1LVT m=1 l=1.8e-08 nfin=4 nf=2 
MXISAR0/XIABE0/XIRET0/XI7/XIINV2/XIP0/MM0 ADCOUT<7> XISAR0/XIABE0/XIRET0/XI7/net12 VDDSAR VDDSAR P1LVT m=1 l=1.8e-08 nfin=4 nf=2 
MXISAR0/XIABE0/XIRET0/XI7/XIINV0/XIN0/MM0 XISAR0/XIABE0/XIRET0/XI7/CLKB XISAR0/XIABE0/XIRET0/ICLK VSS VSS N1LVT m=1 l=1.8e-08 nfin=4 nf=1 
MXISAR0/XIABE0/XIRET0/XI7/XIINV0/XIP0/MM0 XISAR0/XIABE0/XIRET0/XI7/CLKB XISAR0/XIABE0/XIRET0/ICLK VDDSAR VDDSAR P1LVT m=1 l=1.8e-08 nfin=4 nf=1 
MXISAR0/XIABE0/XIRET0/XI7/XIINV1/XIN0/MM0 XISAR0/XIABE0/XIRET0/XI7/net12 XISAR0/XIABE0/XIRET0/XI7/net13 VSS VSS N1LVT m=1 l=1.8e-08 nfin=4 nf=1 
MXISAR0/XIABE0/XIRET0/XI7/XIINV1/XIP0/MM0 XISAR0/XIABE0/XIRET0/XI7/net12 XISAR0/XIABE0/XIRET0/XI7/net13 VDDSAR VDDSAR P1LVT m=1 l=1.8e-08 nfin=4 nf=1 
MXISAR0/XIABE0/XIRET0/XI7/XILATCH0/XI1/XIN0/MM0 XISAR0/XIABE0/XIRET0/XI7/net13 XISAR0/XIABE0/XIRET0/XI7/XILATCH0/MEM VSS VSS N1LVT m=1 l=1.8e-08 nfin=4 nf=1 
MXISAR0/XIABE0/XIRET0/XI7/XILATCH0/XI1/XIP0/MM0 XISAR0/XIABE0/XIRET0/XI7/net13 XISAR0/XIABE0/XIRET0/XI7/XILATCH0/MEM VDDSAR VDDSAR P1LVT m=1 l=1.8e-08 nfin=4 nf=1 
MXISAR0/XIABE0/XIRET0/XI7/XILATCH0/XI0/XIN0/MM0 XISAR0/XIABE0/XIRET0/XI7/XILATCH0/MEM XISAR0/XIABE0/XIRET0/ICLK XISAR0/XIABE0/XIRET0/XI7/XILATCH0/XI0/N0 VSS N1LVT m=1 l=1.8e-08 nfin=4 nf=1 
MXISAR0/XIABE0/XIRET0/XI7/XILATCH0/XI0/XIN1/MM0 XISAR0/XIABE0/XIRET0/XI7/XILATCH0/XI0/N0 XISAR0/XIABE0/RETI<7> VSS VSS N1LVT m=1 l=1.8e-08 nfin=4 nf=1 
MXISAR0/XIABE0/XIRET0/XI7/XILATCH0/XI0/XIP0/MM0 XISAR0/XIABE0/XIRET0/XI7/XILATCH0/XI0/N1 XISAR0/XIABE0/RETI<7> VDDSAR VDDSAR P1LVT m=1 l=1.8e-08 nfin=4 nf=1 
MXISAR0/XIABE0/XIRET0/XI7/XILATCH0/XI0/XIP1/MM0 XISAR0/XIABE0/XIRET0/XI7/XILATCH0/MEM XISAR0/XIABE0/XIRET0/XI7/CLKB XISAR0/XIABE0/XIRET0/XI7/XILATCH0/XI0/N1 VDDSAR P1LVT m=1 l=1.8e-08 nfin=4 nf=1 
MXISAR0/XIABE0/XIRET0/XI7/XILATCH0/XI2/XIN0/MM0 XISAR0/XIABE0/XIRET0/XI7/XILATCH0/MEM XISAR0/XIABE0/XIRET0/XI7/CLKB XISAR0/XIABE0/XIRET0/XI7/XILATCH0/XI2/N0 VSS N1LVT m=1 l=1.8e-08 nfin=4 nf=1 
MXISAR0/XIABE0/XIRET0/XI7/XILATCH0/XI2/XIN1/MM0 XISAR0/XIABE0/XIRET0/XI7/XILATCH0/XI2/N0 XISAR0/XIABE0/XIRET0/XI7/net13 VSS VSS N1LVT m=1 l=1.8e-08 nfin=4 nf=1 
MXISAR0/XIABE0/XIRET0/XI7/XILATCH0/XI2/XIP0/MM0 XISAR0/XIABE0/XIRET0/XI7/XILATCH0/XI2/N1 XISAR0/XIABE0/XIRET0/XI7/net13 VDDSAR VDDSAR P1LVT m=1 l=1.8e-08 nfin=4 nf=1 
MXISAR0/XIABE0/XIRET0/XI7/XILATCH0/XI2/XIP1/MM0 XISAR0/XIABE0/XIRET0/XI7/XILATCH0/MEM XISAR0/XIABE0/XIRET0/ICLK XISAR0/XIABE0/XIRET0/XI7/XILATCH0/XI2/N1 VDDSAR P1LVT m=1 l=1.8e-08 nfin=4 nf=1 
MXISAR0/XIABE0/XIRET0/XI6/XIINV2/XIN0/MM0 ADCOUT<6> XISAR0/XIABE0/XIRET0/XI6/net12 VSS VSS N1LVT m=1 l=1.8e-08 nfin=4 nf=2 
MXISAR0/XIABE0/XIRET0/XI6/XIINV2/XIP0/MM0 ADCOUT<6> XISAR0/XIABE0/XIRET0/XI6/net12 VDDSAR VDDSAR P1LVT m=1 l=1.8e-08 nfin=4 nf=2 
MXISAR0/XIABE0/XIRET0/XI6/XIINV0/XIN0/MM0 XISAR0/XIABE0/XIRET0/XI6/CLKB XISAR0/XIABE0/XIRET0/ICLK VSS VSS N1LVT m=1 l=1.8e-08 nfin=4 nf=1 
MXISAR0/XIABE0/XIRET0/XI6/XIINV0/XIP0/MM0 XISAR0/XIABE0/XIRET0/XI6/CLKB XISAR0/XIABE0/XIRET0/ICLK VDDSAR VDDSAR P1LVT m=1 l=1.8e-08 nfin=4 nf=1 
MXISAR0/XIABE0/XIRET0/XI6/XIINV1/XIN0/MM0 XISAR0/XIABE0/XIRET0/XI6/net12 XISAR0/XIABE0/XIRET0/XI6/net13 VSS VSS N1LVT m=1 l=1.8e-08 nfin=4 nf=1 
MXISAR0/XIABE0/XIRET0/XI6/XIINV1/XIP0/MM0 XISAR0/XIABE0/XIRET0/XI6/net12 XISAR0/XIABE0/XIRET0/XI6/net13 VDDSAR VDDSAR P1LVT m=1 l=1.8e-08 nfin=4 nf=1 
MXISAR0/XIABE0/XIRET0/XI6/XILATCH0/XI1/XIN0/MM0 XISAR0/XIABE0/XIRET0/XI6/net13 XISAR0/XIABE0/XIRET0/XI6/XILATCH0/MEM VSS VSS N1LVT m=1 l=1.8e-08 nfin=4 nf=1 
MXISAR0/XIABE0/XIRET0/XI6/XILATCH0/XI1/XIP0/MM0 XISAR0/XIABE0/XIRET0/XI6/net13 XISAR0/XIABE0/XIRET0/XI6/XILATCH0/MEM VDDSAR VDDSAR P1LVT m=1 l=1.8e-08 nfin=4 nf=1 
MXISAR0/XIABE0/XIRET0/XI6/XILATCH0/XI0/XIN0/MM0 XISAR0/XIABE0/XIRET0/XI6/XILATCH0/MEM XISAR0/XIABE0/XIRET0/ICLK XISAR0/XIABE0/XIRET0/XI6/XILATCH0/XI0/N0 VSS N1LVT m=1 l=1.8e-08 nfin=4 nf=1 
MXISAR0/XIABE0/XIRET0/XI6/XILATCH0/XI0/XIN1/MM0 XISAR0/XIABE0/XIRET0/XI6/XILATCH0/XI0/N0 XISAR0/XIABE0/RETI<6> VSS VSS N1LVT m=1 l=1.8e-08 nfin=4 nf=1 
MXISAR0/XIABE0/XIRET0/XI6/XILATCH0/XI0/XIP0/MM0 XISAR0/XIABE0/XIRET0/XI6/XILATCH0/XI0/N1 XISAR0/XIABE0/RETI<6> VDDSAR VDDSAR P1LVT m=1 l=1.8e-08 nfin=4 nf=1 
MXISAR0/XIABE0/XIRET0/XI6/XILATCH0/XI0/XIP1/MM0 XISAR0/XIABE0/XIRET0/XI6/XILATCH0/MEM XISAR0/XIABE0/XIRET0/XI6/CLKB XISAR0/XIABE0/XIRET0/XI6/XILATCH0/XI0/N1 VDDSAR P1LVT m=1 l=1.8e-08 nfin=4 nf=1 
MXISAR0/XIABE0/XIRET0/XI6/XILATCH0/XI2/XIN0/MM0 XISAR0/XIABE0/XIRET0/XI6/XILATCH0/MEM XISAR0/XIABE0/XIRET0/XI6/CLKB XISAR0/XIABE0/XIRET0/XI6/XILATCH0/XI2/N0 VSS N1LVT m=1 l=1.8e-08 nfin=4 nf=1 
MXISAR0/XIABE0/XIRET0/XI6/XILATCH0/XI2/XIN1/MM0 XISAR0/XIABE0/XIRET0/XI6/XILATCH0/XI2/N0 XISAR0/XIABE0/XIRET0/XI6/net13 VSS VSS N1LVT m=1 l=1.8e-08 nfin=4 nf=1 
MXISAR0/XIABE0/XIRET0/XI6/XILATCH0/XI2/XIP0/MM0 XISAR0/XIABE0/XIRET0/XI6/XILATCH0/XI2/N1 XISAR0/XIABE0/XIRET0/XI6/net13 VDDSAR VDDSAR P1LVT m=1 l=1.8e-08 nfin=4 nf=1 
MXISAR0/XIABE0/XIRET0/XI6/XILATCH0/XI2/XIP1/MM0 XISAR0/XIABE0/XIRET0/XI6/XILATCH0/MEM XISAR0/XIABE0/XIRET0/ICLK XISAR0/XIABE0/XIRET0/XI6/XILATCH0/XI2/N1 VDDSAR P1LVT m=1 l=1.8e-08 nfin=4 nf=1 
MXISAR0/XIABE0/XIRET0/XI4/XIINV2/XIN0/MM0 ADCOUT<4> XISAR0/XIABE0/XIRET0/XI4/net12 VSS VSS N1LVT m=1 l=1.8e-08 nfin=4 nf=2 
MXISAR0/XIABE0/XIRET0/XI4/XIINV2/XIP0/MM0 ADCOUT<4> XISAR0/XIABE0/XIRET0/XI4/net12 VDDSAR VDDSAR P1LVT m=1 l=1.8e-08 nfin=4 nf=2 
MXISAR0/XIABE0/XIRET0/XI4/XIINV0/XIN0/MM0 XISAR0/XIABE0/XIRET0/XI4/CLKB XISAR0/XIABE0/XIRET0/ICLK VSS VSS N1LVT m=1 l=1.8e-08 nfin=4 nf=1 
MXISAR0/XIABE0/XIRET0/XI4/XIINV0/XIP0/MM0 XISAR0/XIABE0/XIRET0/XI4/CLKB XISAR0/XIABE0/XIRET0/ICLK VDDSAR VDDSAR P1LVT m=1 l=1.8e-08 nfin=4 nf=1 
MXISAR0/XIABE0/XIRET0/XI4/XIINV1/XIN0/MM0 XISAR0/XIABE0/XIRET0/XI4/net12 XISAR0/XIABE0/XIRET0/XI4/net13 VSS VSS N1LVT m=1 l=1.8e-08 nfin=4 nf=1 
MXISAR0/XIABE0/XIRET0/XI4/XIINV1/XIP0/MM0 XISAR0/XIABE0/XIRET0/XI4/net12 XISAR0/XIABE0/XIRET0/XI4/net13 VDDSAR VDDSAR P1LVT m=1 l=1.8e-08 nfin=4 nf=1 
MXISAR0/XIABE0/XIRET0/XI4/XILATCH0/XI1/XIN0/MM0 XISAR0/XIABE0/XIRET0/XI4/net13 XISAR0/XIABE0/XIRET0/XI4/XILATCH0/MEM VSS VSS N1LVT m=1 l=1.8e-08 nfin=4 nf=1 
MXISAR0/XIABE0/XIRET0/XI4/XILATCH0/XI1/XIP0/MM0 XISAR0/XIABE0/XIRET0/XI4/net13 XISAR0/XIABE0/XIRET0/XI4/XILATCH0/MEM VDDSAR VDDSAR P1LVT m=1 l=1.8e-08 nfin=4 nf=1 
MXISAR0/XIABE0/XIRET0/XI4/XILATCH0/XI0/XIN0/MM0 XISAR0/XIABE0/XIRET0/XI4/XILATCH0/MEM XISAR0/XIABE0/XIRET0/ICLK XISAR0/XIABE0/XIRET0/XI4/XILATCH0/XI0/N0 VSS N1LVT m=1 l=1.8e-08 nfin=4 nf=1 
MXISAR0/XIABE0/XIRET0/XI4/XILATCH0/XI0/XIN1/MM0 XISAR0/XIABE0/XIRET0/XI4/XILATCH0/XI0/N0 XISAR0/XIABE0/RETI<4> VSS VSS N1LVT m=1 l=1.8e-08 nfin=4 nf=1 
MXISAR0/XIABE0/XIRET0/XI4/XILATCH0/XI0/XIP0/MM0 XISAR0/XIABE0/XIRET0/XI4/XILATCH0/XI0/N1 XISAR0/XIABE0/RETI<4> VDDSAR VDDSAR P1LVT m=1 l=1.8e-08 nfin=4 nf=1 
MXISAR0/XIABE0/XIRET0/XI4/XILATCH0/XI0/XIP1/MM0 XISAR0/XIABE0/XIRET0/XI4/XILATCH0/MEM XISAR0/XIABE0/XIRET0/XI4/CLKB XISAR0/XIABE0/XIRET0/XI4/XILATCH0/XI0/N1 VDDSAR P1LVT m=1 l=1.8e-08 nfin=4 nf=1 
MXISAR0/XIABE0/XIRET0/XI4/XILATCH0/XI2/XIN0/MM0 XISAR0/XIABE0/XIRET0/XI4/XILATCH0/MEM XISAR0/XIABE0/XIRET0/XI4/CLKB XISAR0/XIABE0/XIRET0/XI4/XILATCH0/XI2/N0 VSS N1LVT m=1 l=1.8e-08 nfin=4 nf=1 
MXISAR0/XIABE0/XIRET0/XI4/XILATCH0/XI2/XIN1/MM0 XISAR0/XIABE0/XIRET0/XI4/XILATCH0/XI2/N0 XISAR0/XIABE0/XIRET0/XI4/net13 VSS VSS N1LVT m=1 l=1.8e-08 nfin=4 nf=1 
MXISAR0/XIABE0/XIRET0/XI4/XILATCH0/XI2/XIP0/MM0 XISAR0/XIABE0/XIRET0/XI4/XILATCH0/XI2/N1 XISAR0/XIABE0/XIRET0/XI4/net13 VDDSAR VDDSAR P1LVT m=1 l=1.8e-08 nfin=4 nf=1 
MXISAR0/XIABE0/XIRET0/XI4/XILATCH0/XI2/XIP1/MM0 XISAR0/XIABE0/XIRET0/XI4/XILATCH0/MEM XISAR0/XIABE0/XIRET0/ICLK XISAR0/XIABE0/XIRET0/XI4/XILATCH0/XI2/N1 VDDSAR P1LVT m=1 l=1.8e-08 nfin=4 nf=1 
MXISAR0/XIABE0/XIRET0/XI8/XIINV2/XIN0/MM0 ADCOUT<8> XISAR0/XIABE0/XIRET0/XI8/net12 VSS VSS N1LVT m=1 l=1.8e-08 nfin=4 nf=2 
MXISAR0/XIABE0/XIRET0/XI8/XIINV2/XIP0/MM0 ADCOUT<8> XISAR0/XIABE0/XIRET0/XI8/net12 VDDSAR VDDSAR P1LVT m=1 l=1.8e-08 nfin=4 nf=2 
MXISAR0/XIABE0/XIRET0/XI8/XIINV0/XIN0/MM0 XISAR0/XIABE0/XIRET0/XI8/CLKB XISAR0/XIABE0/XIRET0/ICLK VSS VSS N1LVT m=1 l=1.8e-08 nfin=4 nf=1 
MXISAR0/XIABE0/XIRET0/XI8/XIINV0/XIP0/MM0 XISAR0/XIABE0/XIRET0/XI8/CLKB XISAR0/XIABE0/XIRET0/ICLK VDDSAR VDDSAR P1LVT m=1 l=1.8e-08 nfin=4 nf=1 
MXISAR0/XIABE0/XIRET0/XI8/XIINV1/XIN0/MM0 XISAR0/XIABE0/XIRET0/XI8/net12 XISAR0/XIABE0/XIRET0/XI8/net13 VSS VSS N1LVT m=1 l=1.8e-08 nfin=4 nf=1 
MXISAR0/XIABE0/XIRET0/XI8/XIINV1/XIP0/MM0 XISAR0/XIABE0/XIRET0/XI8/net12 XISAR0/XIABE0/XIRET0/XI8/net13 VDDSAR VDDSAR P1LVT m=1 l=1.8e-08 nfin=4 nf=1 
MXISAR0/XIABE0/XIRET0/XI8/XILATCH0/XI1/XIN0/MM0 XISAR0/XIABE0/XIRET0/XI8/net13 XISAR0/XIABE0/XIRET0/XI8/XILATCH0/MEM VSS VSS N1LVT m=1 l=1.8e-08 nfin=4 nf=1 
MXISAR0/XIABE0/XIRET0/XI8/XILATCH0/XI1/XIP0/MM0 XISAR0/XIABE0/XIRET0/XI8/net13 XISAR0/XIABE0/XIRET0/XI8/XILATCH0/MEM VDDSAR VDDSAR P1LVT m=1 l=1.8e-08 nfin=4 nf=1 
MXISAR0/XIABE0/XIRET0/XI8/XILATCH0/XI0/XIN0/MM0 XISAR0/XIABE0/XIRET0/XI8/XILATCH0/MEM XISAR0/XIABE0/XIRET0/ICLK XISAR0/XIABE0/XIRET0/XI8/XILATCH0/XI0/N0 VSS N1LVT m=1 l=1.8e-08 nfin=4 nf=1 
MXISAR0/XIABE0/XIRET0/XI8/XILATCH0/XI0/XIN1/MM0 XISAR0/XIABE0/XIRET0/XI8/XILATCH0/XI0/N0 XISAR0/XIABE0/RETI<8> VSS VSS N1LVT m=1 l=1.8e-08 nfin=4 nf=1 
MXISAR0/XIABE0/XIRET0/XI8/XILATCH0/XI0/XIP0/MM0 XISAR0/XIABE0/XIRET0/XI8/XILATCH0/XI0/N1 XISAR0/XIABE0/RETI<8> VDDSAR VDDSAR P1LVT m=1 l=1.8e-08 nfin=4 nf=1 
MXISAR0/XIABE0/XIRET0/XI8/XILATCH0/XI0/XIP1/MM0 XISAR0/XIABE0/XIRET0/XI8/XILATCH0/MEM XISAR0/XIABE0/XIRET0/XI8/CLKB XISAR0/XIABE0/XIRET0/XI8/XILATCH0/XI0/N1 VDDSAR P1LVT m=1 l=1.8e-08 nfin=4 nf=1 
MXISAR0/XIABE0/XIRET0/XI8/XILATCH0/XI2/XIN0/MM0 XISAR0/XIABE0/XIRET0/XI8/XILATCH0/MEM XISAR0/XIABE0/XIRET0/XI8/CLKB XISAR0/XIABE0/XIRET0/XI8/XILATCH0/XI2/N0 VSS N1LVT m=1 l=1.8e-08 nfin=4 nf=1 
MXISAR0/XIABE0/XIRET0/XI8/XILATCH0/XI2/XIN1/MM0 XISAR0/XIABE0/XIRET0/XI8/XILATCH0/XI2/N0 XISAR0/XIABE0/XIRET0/XI8/net13 VSS VSS N1LVT m=1 l=1.8e-08 nfin=4 nf=1 
MXISAR0/XIABE0/XIRET0/XI8/XILATCH0/XI2/XIP0/MM0 XISAR0/XIABE0/XIRET0/XI8/XILATCH0/XI2/N1 XISAR0/XIABE0/XIRET0/XI8/net13 VDDSAR VDDSAR P1LVT m=1 l=1.8e-08 nfin=4 nf=1 
MXISAR0/XIABE0/XIRET0/XI8/XILATCH0/XI2/XIP1/MM0 XISAR0/XIABE0/XIRET0/XI8/XILATCH0/MEM XISAR0/XIABE0/XIRET0/ICLK XISAR0/XIABE0/XIRET0/XI8/XILATCH0/XI2/N1 VDDSAR P1LVT m=1 l=1.8e-08 nfin=4 nf=1 
MXISAR0/XIABE0/XIRET0/XI0/XIINV2/XIN0/MM0 ADCOUT<0> XISAR0/XIABE0/XIRET0/XI0/net12 VSS VSS N1LVT m=1 l=1.8e-08 nfin=4 nf=2 
MXISAR0/XIABE0/XIRET0/XI0/XIINV2/XIP0/MM0 ADCOUT<0> XISAR0/XIABE0/XIRET0/XI0/net12 VDDSAR VDDSAR P1LVT m=1 l=1.8e-08 nfin=4 nf=2 
MXISAR0/XIABE0/XIRET0/XI0/XIINV0/XIN0/MM0 XISAR0/XIABE0/XIRET0/XI0/CLKB XISAR0/XIABE0/XIRET0/ICLK VSS VSS N1LVT m=1 l=1.8e-08 nfin=4 nf=1 
MXISAR0/XIABE0/XIRET0/XI0/XIINV0/XIP0/MM0 XISAR0/XIABE0/XIRET0/XI0/CLKB XISAR0/XIABE0/XIRET0/ICLK VDDSAR VDDSAR P1LVT m=1 l=1.8e-08 nfin=4 nf=1 
MXISAR0/XIABE0/XIRET0/XI0/XIINV1/XIN0/MM0 XISAR0/XIABE0/XIRET0/XI0/net12 XISAR0/XIABE0/XIRET0/XI0/net13 VSS VSS N1LVT m=1 l=1.8e-08 nfin=4 nf=1 
MXISAR0/XIABE0/XIRET0/XI0/XIINV1/XIP0/MM0 XISAR0/XIABE0/XIRET0/XI0/net12 XISAR0/XIABE0/XIRET0/XI0/net13 VDDSAR VDDSAR P1LVT m=1 l=1.8e-08 nfin=4 nf=1 
MXISAR0/XIABE0/XIRET0/XI0/XILATCH0/XI1/XIN0/MM0 XISAR0/XIABE0/XIRET0/XI0/net13 XISAR0/XIABE0/XIRET0/XI0/XILATCH0/MEM VSS VSS N1LVT m=1 l=1.8e-08 nfin=4 nf=1 
MXISAR0/XIABE0/XIRET0/XI0/XILATCH0/XI1/XIP0/MM0 XISAR0/XIABE0/XIRET0/XI0/net13 XISAR0/XIABE0/XIRET0/XI0/XILATCH0/MEM VDDSAR VDDSAR P1LVT m=1 l=1.8e-08 nfin=4 nf=1 
MXISAR0/XIABE0/XIRET0/XI0/XILATCH0/XI0/XIN0/MM0 XISAR0/XIABE0/XIRET0/XI0/XILATCH0/MEM XISAR0/XIABE0/XIRET0/ICLK XISAR0/XIABE0/XIRET0/XI0/XILATCH0/XI0/N0 VSS N1LVT m=1 l=1.8e-08 nfin=4 nf=1 
MXISAR0/XIABE0/XIRET0/XI0/XILATCH0/XI0/XIN1/MM0 XISAR0/XIABE0/XIRET0/XI0/XILATCH0/XI0/N0 XISAR0/XIABE0/RETI<0> VSS VSS N1LVT m=1 l=1.8e-08 nfin=4 nf=1 
MXISAR0/XIABE0/XIRET0/XI0/XILATCH0/XI0/XIP0/MM0 XISAR0/XIABE0/XIRET0/XI0/XILATCH0/XI0/N1 XISAR0/XIABE0/RETI<0> VDDSAR VDDSAR P1LVT m=1 l=1.8e-08 nfin=4 nf=1 
MXISAR0/XIABE0/XIRET0/XI0/XILATCH0/XI0/XIP1/MM0 XISAR0/XIABE0/XIRET0/XI0/XILATCH0/MEM XISAR0/XIABE0/XIRET0/XI0/CLKB XISAR0/XIABE0/XIRET0/XI0/XILATCH0/XI0/N1 VDDSAR P1LVT m=1 l=1.8e-08 nfin=4 nf=1 
MXISAR0/XIABE0/XIRET0/XI0/XILATCH0/XI2/XIN0/MM0 XISAR0/XIABE0/XIRET0/XI0/XILATCH0/MEM XISAR0/XIABE0/XIRET0/XI0/CLKB XISAR0/XIABE0/XIRET0/XI0/XILATCH0/XI2/N0 VSS N1LVT m=1 l=1.8e-08 nfin=4 nf=1 
MXISAR0/XIABE0/XIRET0/XI0/XILATCH0/XI2/XIN1/MM0 XISAR0/XIABE0/XIRET0/XI0/XILATCH0/XI2/N0 XISAR0/XIABE0/XIRET0/XI0/net13 VSS VSS N1LVT m=1 l=1.8e-08 nfin=4 nf=1 
MXISAR0/XIABE0/XIRET0/XI0/XILATCH0/XI2/XIP0/MM0 XISAR0/XIABE0/XIRET0/XI0/XILATCH0/XI2/N1 XISAR0/XIABE0/XIRET0/XI0/net13 VDDSAR VDDSAR P1LVT m=1 l=1.8e-08 nfin=4 nf=1 
MXISAR0/XIABE0/XIRET0/XI0/XILATCH0/XI2/XIP1/MM0 XISAR0/XIABE0/XIRET0/XI0/XILATCH0/MEM XISAR0/XIABE0/XIRET0/ICLK XISAR0/XIABE0/XIRET0/XI0/XILATCH0/XI2/N1 VDDSAR P1LVT m=1 l=1.8e-08 nfin=4 nf=1 
MXISAR0/XIABE0/XIRET0/XI1/XIINV2/XIN0/MM0 ADCOUT<1> XISAR0/XIABE0/XIRET0/XI1/net12 VSS VSS N1LVT m=1 l=1.8e-08 nfin=4 nf=2 
MXISAR0/XIABE0/XIRET0/XI1/XIINV2/XIP0/MM0 ADCOUT<1> XISAR0/XIABE0/XIRET0/XI1/net12 VDDSAR VDDSAR P1LVT m=1 l=1.8e-08 nfin=4 nf=2 
MXISAR0/XIABE0/XIRET0/XI1/XIINV0/XIN0/MM0 XISAR0/XIABE0/XIRET0/XI1/CLKB XISAR0/XIABE0/XIRET0/ICLK VSS VSS N1LVT m=1 l=1.8e-08 nfin=4 nf=1 
MXISAR0/XIABE0/XIRET0/XI1/XIINV0/XIP0/MM0 XISAR0/XIABE0/XIRET0/XI1/CLKB XISAR0/XIABE0/XIRET0/ICLK VDDSAR VDDSAR P1LVT m=1 l=1.8e-08 nfin=4 nf=1 
MXISAR0/XIABE0/XIRET0/XI1/XIINV1/XIN0/MM0 XISAR0/XIABE0/XIRET0/XI1/net12 XISAR0/XIABE0/XIRET0/XI1/net13 VSS VSS N1LVT m=1 l=1.8e-08 nfin=4 nf=1 
MXISAR0/XIABE0/XIRET0/XI1/XIINV1/XIP0/MM0 XISAR0/XIABE0/XIRET0/XI1/net12 XISAR0/XIABE0/XIRET0/XI1/net13 VDDSAR VDDSAR P1LVT m=1 l=1.8e-08 nfin=4 nf=1 
MXISAR0/XIABE0/XIRET0/XI1/XILATCH0/XI1/XIN0/MM0 XISAR0/XIABE0/XIRET0/XI1/net13 XISAR0/XIABE0/XIRET0/XI1/XILATCH0/MEM VSS VSS N1LVT m=1 l=1.8e-08 nfin=4 nf=1 
MXISAR0/XIABE0/XIRET0/XI1/XILATCH0/XI1/XIP0/MM0 XISAR0/XIABE0/XIRET0/XI1/net13 XISAR0/XIABE0/XIRET0/XI1/XILATCH0/MEM VDDSAR VDDSAR P1LVT m=1 l=1.8e-08 nfin=4 nf=1 
MXISAR0/XIABE0/XIRET0/XI1/XILATCH0/XI0/XIN0/MM0 XISAR0/XIABE0/XIRET0/XI1/XILATCH0/MEM XISAR0/XIABE0/XIRET0/ICLK XISAR0/XIABE0/XIRET0/XI1/XILATCH0/XI0/N0 VSS N1LVT m=1 l=1.8e-08 nfin=4 nf=1 
MXISAR0/XIABE0/XIRET0/XI1/XILATCH0/XI0/XIN1/MM0 XISAR0/XIABE0/XIRET0/XI1/XILATCH0/XI0/N0 XISAR0/XIABE0/RETI<1> VSS VSS N1LVT m=1 l=1.8e-08 nfin=4 nf=1 
MXISAR0/XIABE0/XIRET0/XI1/XILATCH0/XI0/XIP0/MM0 XISAR0/XIABE0/XIRET0/XI1/XILATCH0/XI0/N1 XISAR0/XIABE0/RETI<1> VDDSAR VDDSAR P1LVT m=1 l=1.8e-08 nfin=4 nf=1 
MXISAR0/XIABE0/XIRET0/XI1/XILATCH0/XI0/XIP1/MM0 XISAR0/XIABE0/XIRET0/XI1/XILATCH0/MEM XISAR0/XIABE0/XIRET0/XI1/CLKB XISAR0/XIABE0/XIRET0/XI1/XILATCH0/XI0/N1 VDDSAR P1LVT m=1 l=1.8e-08 nfin=4 nf=1 
MXISAR0/XIABE0/XIRET0/XI1/XILATCH0/XI2/XIN0/MM0 XISAR0/XIABE0/XIRET0/XI1/XILATCH0/MEM XISAR0/XIABE0/XIRET0/XI1/CLKB XISAR0/XIABE0/XIRET0/XI1/XILATCH0/XI2/N0 VSS N1LVT m=1 l=1.8e-08 nfin=4 nf=1 
MXISAR0/XIABE0/XIRET0/XI1/XILATCH0/XI2/XIN1/MM0 XISAR0/XIABE0/XIRET0/XI1/XILATCH0/XI2/N0 XISAR0/XIABE0/XIRET0/XI1/net13 VSS VSS N1LVT m=1 l=1.8e-08 nfin=4 nf=1 
MXISAR0/XIABE0/XIRET0/XI1/XILATCH0/XI2/XIP0/MM0 XISAR0/XIABE0/XIRET0/XI1/XILATCH0/XI2/N1 XISAR0/XIABE0/XIRET0/XI1/net13 VDDSAR VDDSAR P1LVT m=1 l=1.8e-08 nfin=4 nf=1 
MXISAR0/XIABE0/XIRET0/XI1/XILATCH0/XI2/XIP1/MM0 XISAR0/XIABE0/XIRET0/XI1/XILATCH0/MEM XISAR0/XIABE0/XIRET0/ICLK XISAR0/XIABE0/XIRET0/XI1/XILATCH0/XI2/N1 VDDSAR P1LVT m=1 l=1.8e-08 nfin=4 nf=1 
MXISAR0/XIABE0/XIRET0/XI5/XIINV2/XIN0/MM0 ADCOUT<5> XISAR0/XIABE0/XIRET0/XI5/net12 VSS VSS N1LVT m=1 l=1.8e-08 nfin=4 nf=2 
MXISAR0/XIABE0/XIRET0/XI5/XIINV2/XIP0/MM0 ADCOUT<5> XISAR0/XIABE0/XIRET0/XI5/net12 VDDSAR VDDSAR P1LVT m=1 l=1.8e-08 nfin=4 nf=2 
MXISAR0/XIABE0/XIRET0/XI5/XIINV0/XIN0/MM0 XISAR0/XIABE0/XIRET0/XI5/CLKB XISAR0/XIABE0/XIRET0/ICLK VSS VSS N1LVT m=1 l=1.8e-08 nfin=4 nf=1 
MXISAR0/XIABE0/XIRET0/XI5/XIINV0/XIP0/MM0 XISAR0/XIABE0/XIRET0/XI5/CLKB XISAR0/XIABE0/XIRET0/ICLK VDDSAR VDDSAR P1LVT m=1 l=1.8e-08 nfin=4 nf=1 
MXISAR0/XIABE0/XIRET0/XI5/XIINV1/XIN0/MM0 XISAR0/XIABE0/XIRET0/XI5/net12 XISAR0/XIABE0/XIRET0/XI5/net13 VSS VSS N1LVT m=1 l=1.8e-08 nfin=4 nf=1 
MXISAR0/XIABE0/XIRET0/XI5/XIINV1/XIP0/MM0 XISAR0/XIABE0/XIRET0/XI5/net12 XISAR0/XIABE0/XIRET0/XI5/net13 VDDSAR VDDSAR P1LVT m=1 l=1.8e-08 nfin=4 nf=1 
MXISAR0/XIABE0/XIRET0/XI5/XILATCH0/XI1/XIN0/MM0 XISAR0/XIABE0/XIRET0/XI5/net13 XISAR0/XIABE0/XIRET0/XI5/XILATCH0/MEM VSS VSS N1LVT m=1 l=1.8e-08 nfin=4 nf=1 
MXISAR0/XIABE0/XIRET0/XI5/XILATCH0/XI1/XIP0/MM0 XISAR0/XIABE0/XIRET0/XI5/net13 XISAR0/XIABE0/XIRET0/XI5/XILATCH0/MEM VDDSAR VDDSAR P1LVT m=1 l=1.8e-08 nfin=4 nf=1 
MXISAR0/XIABE0/XIRET0/XI5/XILATCH0/XI0/XIN0/MM0 XISAR0/XIABE0/XIRET0/XI5/XILATCH0/MEM XISAR0/XIABE0/XIRET0/ICLK XISAR0/XIABE0/XIRET0/XI5/XILATCH0/XI0/N0 VSS N1LVT m=1 l=1.8e-08 nfin=4 nf=1 
MXISAR0/XIABE0/XIRET0/XI5/XILATCH0/XI0/XIN1/MM0 XISAR0/XIABE0/XIRET0/XI5/XILATCH0/XI0/N0 XISAR0/XIABE0/RETI<5> VSS VSS N1LVT m=1 l=1.8e-08 nfin=4 nf=1 
MXISAR0/XIABE0/XIRET0/XI5/XILATCH0/XI0/XIP0/MM0 XISAR0/XIABE0/XIRET0/XI5/XILATCH0/XI0/N1 XISAR0/XIABE0/RETI<5> VDDSAR VDDSAR P1LVT m=1 l=1.8e-08 nfin=4 nf=1 
MXISAR0/XIABE0/XIRET0/XI5/XILATCH0/XI0/XIP1/MM0 XISAR0/XIABE0/XIRET0/XI5/XILATCH0/MEM XISAR0/XIABE0/XIRET0/XI5/CLKB XISAR0/XIABE0/XIRET0/XI5/XILATCH0/XI0/N1 VDDSAR P1LVT m=1 l=1.8e-08 nfin=4 nf=1 
MXISAR0/XIABE0/XIRET0/XI5/XILATCH0/XI2/XIN0/MM0 XISAR0/XIABE0/XIRET0/XI5/XILATCH0/MEM XISAR0/XIABE0/XIRET0/XI5/CLKB XISAR0/XIABE0/XIRET0/XI5/XILATCH0/XI2/N0 VSS N1LVT m=1 l=1.8e-08 nfin=4 nf=1 
MXISAR0/XIABE0/XIRET0/XI5/XILATCH0/XI2/XIN1/MM0 XISAR0/XIABE0/XIRET0/XI5/XILATCH0/XI2/N0 XISAR0/XIABE0/XIRET0/XI5/net13 VSS VSS N1LVT m=1 l=1.8e-08 nfin=4 nf=1 
MXISAR0/XIABE0/XIRET0/XI5/XILATCH0/XI2/XIP0/MM0 XISAR0/XIABE0/XIRET0/XI5/XILATCH0/XI2/N1 XISAR0/XIABE0/XIRET0/XI5/net13 VDDSAR VDDSAR P1LVT m=1 l=1.8e-08 nfin=4 nf=1 
MXISAR0/XIABE0/XIRET0/XI5/XILATCH0/XI2/XIP1/MM0 XISAR0/XIABE0/XIRET0/XI5/XILATCH0/MEM XISAR0/XIABE0/XIRET0/ICLK XISAR0/XIABE0/XIRET0/XI5/XILATCH0/XI2/N1 VDDSAR P1LVT m=1 l=1.8e-08 nfin=4 nf=1 
MXISAR0/XIABE0/XIRET0/XI3/XIINV2/XIN0/MM0 ADCOUT<3> XISAR0/XIABE0/XIRET0/XI3/net12 VSS VSS N1LVT m=1 l=1.8e-08 nfin=4 nf=2 
MXISAR0/XIABE0/XIRET0/XI3/XIINV2/XIP0/MM0 ADCOUT<3> XISAR0/XIABE0/XIRET0/XI3/net12 VDDSAR VDDSAR P1LVT m=1 l=1.8e-08 nfin=4 nf=2 
MXISAR0/XIABE0/XIRET0/XI3/XIINV0/XIN0/MM0 XISAR0/XIABE0/XIRET0/XI3/CLKB XISAR0/XIABE0/XIRET0/ICLK VSS VSS N1LVT m=1 l=1.8e-08 nfin=4 nf=1 
MXISAR0/XIABE0/XIRET0/XI3/XIINV0/XIP0/MM0 XISAR0/XIABE0/XIRET0/XI3/CLKB XISAR0/XIABE0/XIRET0/ICLK VDDSAR VDDSAR P1LVT m=1 l=1.8e-08 nfin=4 nf=1 
MXISAR0/XIABE0/XIRET0/XI3/XIINV1/XIN0/MM0 XISAR0/XIABE0/XIRET0/XI3/net12 XISAR0/XIABE0/XIRET0/XI3/net13 VSS VSS N1LVT m=1 l=1.8e-08 nfin=4 nf=1 
MXISAR0/XIABE0/XIRET0/XI3/XIINV1/XIP0/MM0 XISAR0/XIABE0/XIRET0/XI3/net12 XISAR0/XIABE0/XIRET0/XI3/net13 VDDSAR VDDSAR P1LVT m=1 l=1.8e-08 nfin=4 nf=1 
MXISAR0/XIABE0/XIRET0/XI3/XILATCH0/XI1/XIN0/MM0 XISAR0/XIABE0/XIRET0/XI3/net13 XISAR0/XIABE0/XIRET0/XI3/XILATCH0/MEM VSS VSS N1LVT m=1 l=1.8e-08 nfin=4 nf=1 
MXISAR0/XIABE0/XIRET0/XI3/XILATCH0/XI1/XIP0/MM0 XISAR0/XIABE0/XIRET0/XI3/net13 XISAR0/XIABE0/XIRET0/XI3/XILATCH0/MEM VDDSAR VDDSAR P1LVT m=1 l=1.8e-08 nfin=4 nf=1 
MXISAR0/XIABE0/XIRET0/XI3/XILATCH0/XI0/XIN0/MM0 XISAR0/XIABE0/XIRET0/XI3/XILATCH0/MEM XISAR0/XIABE0/XIRET0/ICLK XISAR0/XIABE0/XIRET0/XI3/XILATCH0/XI0/N0 VSS N1LVT m=1 l=1.8e-08 nfin=4 nf=1 
MXISAR0/XIABE0/XIRET0/XI3/XILATCH0/XI0/XIN1/MM0 XISAR0/XIABE0/XIRET0/XI3/XILATCH0/XI0/N0 XISAR0/XIABE0/RETI<3> VSS VSS N1LVT m=1 l=1.8e-08 nfin=4 nf=1 
MXISAR0/XIABE0/XIRET0/XI3/XILATCH0/XI0/XIP0/MM0 XISAR0/XIABE0/XIRET0/XI3/XILATCH0/XI0/N1 XISAR0/XIABE0/RETI<3> VDDSAR VDDSAR P1LVT m=1 l=1.8e-08 nfin=4 nf=1 
MXISAR0/XIABE0/XIRET0/XI3/XILATCH0/XI0/XIP1/MM0 XISAR0/XIABE0/XIRET0/XI3/XILATCH0/MEM XISAR0/XIABE0/XIRET0/XI3/CLKB XISAR0/XIABE0/XIRET0/XI3/XILATCH0/XI0/N1 VDDSAR P1LVT m=1 l=1.8e-08 nfin=4 nf=1 
MXISAR0/XIABE0/XIRET0/XI3/XILATCH0/XI2/XIN0/MM0 XISAR0/XIABE0/XIRET0/XI3/XILATCH0/MEM XISAR0/XIABE0/XIRET0/XI3/CLKB XISAR0/XIABE0/XIRET0/XI3/XILATCH0/XI2/N0 VSS N1LVT m=1 l=1.8e-08 nfin=4 nf=1 
MXISAR0/XIABE0/XIRET0/XI3/XILATCH0/XI2/XIN1/MM0 XISAR0/XIABE0/XIRET0/XI3/XILATCH0/XI2/N0 XISAR0/XIABE0/XIRET0/XI3/net13 VSS VSS N1LVT m=1 l=1.8e-08 nfin=4 nf=1 
MXISAR0/XIABE0/XIRET0/XI3/XILATCH0/XI2/XIP0/MM0 XISAR0/XIABE0/XIRET0/XI3/XILATCH0/XI2/N1 XISAR0/XIABE0/XIRET0/XI3/net13 VDDSAR VDDSAR P1LVT m=1 l=1.8e-08 nfin=4 nf=1 
MXISAR0/XIABE0/XIRET0/XI3/XILATCH0/XI2/XIP1/MM0 XISAR0/XIABE0/XIRET0/XI3/XILATCH0/MEM XISAR0/XIABE0/XIRET0/ICLK XISAR0/XIABE0/XIRET0/XI3/XILATCH0/XI2/N1 VDDSAR P1LVT m=1 l=1.8e-08 nfin=4 nf=1 
MXISAR0/XIABE0/XIRET0/XI2/XIINV2/XIN0/MM0 ADCOUT<2> XISAR0/XIABE0/XIRET0/XI2/net12 VSS VSS N1LVT m=1 l=1.8e-08 nfin=4 nf=2 
MXISAR0/XIABE0/XIRET0/XI2/XIINV2/XIP0/MM0 ADCOUT<2> XISAR0/XIABE0/XIRET0/XI2/net12 VDDSAR VDDSAR P1LVT m=1 l=1.8e-08 nfin=4 nf=2 
MXISAR0/XIABE0/XIRET0/XI2/XIINV0/XIN0/MM0 XISAR0/XIABE0/XIRET0/XI2/CLKB XISAR0/XIABE0/XIRET0/ICLK VSS VSS N1LVT m=1 l=1.8e-08 nfin=4 nf=1 
MXISAR0/XIABE0/XIRET0/XI2/XIINV0/XIP0/MM0 XISAR0/XIABE0/XIRET0/XI2/CLKB XISAR0/XIABE0/XIRET0/ICLK VDDSAR VDDSAR P1LVT m=1 l=1.8e-08 nfin=4 nf=1 
MXISAR0/XIABE0/XIRET0/XI2/XIINV1/XIN0/MM0 XISAR0/XIABE0/XIRET0/XI2/net12 XISAR0/XIABE0/XIRET0/XI2/net13 VSS VSS N1LVT m=1 l=1.8e-08 nfin=4 nf=1 
MXISAR0/XIABE0/XIRET0/XI2/XIINV1/XIP0/MM0 XISAR0/XIABE0/XIRET0/XI2/net12 XISAR0/XIABE0/XIRET0/XI2/net13 VDDSAR VDDSAR P1LVT m=1 l=1.8e-08 nfin=4 nf=1 
MXISAR0/XIABE0/XIRET0/XI2/XILATCH0/XI1/XIN0/MM0 XISAR0/XIABE0/XIRET0/XI2/net13 XISAR0/XIABE0/XIRET0/XI2/XILATCH0/MEM VSS VSS N1LVT m=1 l=1.8e-08 nfin=4 nf=1 
MXISAR0/XIABE0/XIRET0/XI2/XILATCH0/XI1/XIP0/MM0 XISAR0/XIABE0/XIRET0/XI2/net13 XISAR0/XIABE0/XIRET0/XI2/XILATCH0/MEM VDDSAR VDDSAR P1LVT m=1 l=1.8e-08 nfin=4 nf=1 
MXISAR0/XIABE0/XIRET0/XI2/XILATCH0/XI0/XIN0/MM0 XISAR0/XIABE0/XIRET0/XI2/XILATCH0/MEM XISAR0/XIABE0/XIRET0/ICLK XISAR0/XIABE0/XIRET0/XI2/XILATCH0/XI0/N0 VSS N1LVT m=1 l=1.8e-08 nfin=4 nf=1 
MXISAR0/XIABE0/XIRET0/XI2/XILATCH0/XI0/XIN1/MM0 XISAR0/XIABE0/XIRET0/XI2/XILATCH0/XI0/N0 XISAR0/XIABE0/RETI<2> VSS VSS N1LVT m=1 l=1.8e-08 nfin=4 nf=1 
MXISAR0/XIABE0/XIRET0/XI2/XILATCH0/XI0/XIP0/MM0 XISAR0/XIABE0/XIRET0/XI2/XILATCH0/XI0/N1 XISAR0/XIABE0/RETI<2> VDDSAR VDDSAR P1LVT m=1 l=1.8e-08 nfin=4 nf=1 
MXISAR0/XIABE0/XIRET0/XI2/XILATCH0/XI0/XIP1/MM0 XISAR0/XIABE0/XIRET0/XI2/XILATCH0/MEM XISAR0/XIABE0/XIRET0/XI2/CLKB XISAR0/XIABE0/XIRET0/XI2/XILATCH0/XI0/N1 VDDSAR P1LVT m=1 l=1.8e-08 nfin=4 nf=1 
MXISAR0/XIABE0/XIRET0/XI2/XILATCH0/XI2/XIN0/MM0 XISAR0/XIABE0/XIRET0/XI2/XILATCH0/MEM XISAR0/XIABE0/XIRET0/XI2/CLKB XISAR0/XIABE0/XIRET0/XI2/XILATCH0/XI2/N0 VSS N1LVT m=1 l=1.8e-08 nfin=4 nf=1 
MXISAR0/XIABE0/XIRET0/XI2/XILATCH0/XI2/XIN1/MM0 XISAR0/XIABE0/XIRET0/XI2/XILATCH0/XI2/N0 XISAR0/XIABE0/XIRET0/XI2/net13 VSS VSS N1LVT m=1 l=1.8e-08 nfin=4 nf=1 
MXISAR0/XIABE0/XIRET0/XI2/XILATCH0/XI2/XIP0/MM0 XISAR0/XIABE0/XIRET0/XI2/XILATCH0/XI2/N1 XISAR0/XIABE0/XIRET0/XI2/net13 VDDSAR VDDSAR P1LVT m=1 l=1.8e-08 nfin=4 nf=1 
MXISAR0/XIABE0/XIRET0/XI2/XILATCH0/XI2/XIP1/MM0 XISAR0/XIABE0/XIRET0/XI2/XILATCH0/MEM XISAR0/XIABE0/XIRET0/ICLK XISAR0/XIABE0/XIRET0/XI2/XILATCH0/XI2/N1 VDDSAR P1LVT m=1 l=1.8e-08 nfin=4 nf=1 
MXISAR0/XIABE0/XISARFSM0/XI2/XIN0/MM0 XISAR0/XIABE0/XISARFSM0/TRIGB XISAR0/XIABE0/RST_DLY VSS VSS N1LVT m=1 l=1.8e-08 nfin=4 nf=2 
MXISAR0/XIABE0/XISARFSM0/XI2/XIP0/MM0 XISAR0/XIABE0/XISARFSM0/TRIGB XISAR0/XIABE0/RST_DLY VDDSAR VDDSAR P1LVT m=1 l=1.8e-08 nfin=4 nf=2 
MXISAR0/XIABE0/XISARFSM0/XI0/XIN0/MM0 XISAR0/XIABE0/XISARFSM0/XI0/net6 XISAR0/XIABE0/XISARFSM0/XI0/net6 VSS VSS N1LVT m=1 l=1.8e-08 nfin=4 nf=2 
MXISAR0/XIABE0/XISARFSM0/XI0/XIP0/MM0 VDDSAR XISAR0/XIABE0/XISARFSM0/XI0/net5 XISAR0/XIABE0/XISARFSM0/XI0/net5 VDDSAR P1LVT m=1 l=1.8e-08 nfin=4 nf=2 
MXISAR0/XIABE0/XISARFSM0/XI3<0>/XI7/XIN0/MM0 XISAR0/XIABE0/XISARFSM0/XI3<0>/ICLK XISAR0/XIABE0/XISARFSM0/XI3<0>/ICLKB VSS VSS N1LVT m=1 l=1.8e-08 nfin=4 nf=2 
MXISAR0/XIABE0/XISARFSM0/XI3<0>/XI7/XIP0/MM0 XISAR0/XIABE0/XISARFSM0/XI3<0>/ICLK XISAR0/XIABE0/XISARFSM0/XI3<0>/ICLKB VDDSAR VDDSAR P1LVT m=1 l=1.8e-08 nfin=4 nf=2 
MXISAR0/XIABE0/XISARFSM0/XI3<0>/XI6/XIN0/MM0 XISAR0/XIABE0/XISARFSM0/XI3<0>/ICLKB SARCLK VSS VSS N1LVT m=1 l=1.8e-08 nfin=4 nf=2 
MXISAR0/XIABE0/XISARFSM0/XI3<0>/XI6/XIP0/MM0 XISAR0/XIABE0/XISARFSM0/XI3<0>/ICLKB SARCLK VDDSAR VDDSAR P1LVT m=1 l=1.8e-08 nfin=4 nf=2 
MXISAR0/XIABE0/XISARFSM0/XI3<0>/XI8/XIN0/MM0 XISAR0/XIABE0/XISARFSM0/XI3<0>/IRSTB ICLK VSS VSS N1LVT m=1 l=1.8e-08 nfin=4 nf=2 
MXISAR0/XIABE0/XISARFSM0/XI3<0>/XI8/XIP0/MM0 XISAR0/XIABE0/XISARFSM0/XI3<0>/IRSTB ICLK VDDSAR VDDSAR P1LVT m=1 l=1.8e-08 nfin=4 nf=2 
MXISAR0/XIABE0/XISARFSM0/XI3<0>/XI5/XIN0/MM0 XISAR0/XIABE0/XISARFSM0/XI3<0>/MEM2 XISAR0/XIABE0/XISARFSM0/XI3<0>/ICLKB XISAR0/XIABE0/XISARFSM0/XI3<0>/XI5/N0 VSS N1LVT m=1 l=1.8e-08 nfin=4 nf=1 
MXISAR0/XIABE0/XISARFSM0/XI3<0>/XI5/XIN1/MM0 XISAR0/XIABE0/XISARFSM0/XI3<0>/XI5/N0 SB<0> VSS VSS N1LVT m=1 l=1.8e-08 nfin=4 nf=1 
MXISAR0/XIABE0/XISARFSM0/XI3<0>/XI5/XIP0/MM0 XISAR0/XIABE0/XISARFSM0/XI3<0>/XI5/N1 SB<0> VDDSAR VDDSAR P1LVT m=1 l=1.8e-08 nfin=4 nf=1 
MXISAR0/XIABE0/XISARFSM0/XI3<0>/XI5/XIP1/MM0 XISAR0/XIABE0/XISARFSM0/XI3<0>/MEM2 XISAR0/XIABE0/XISARFSM0/XI3<0>/ICLK XISAR0/XIABE0/XISARFSM0/XI3<0>/XI5/N1 VDDSAR P1LVT m=1 l=1.8e-08 nfin=4 nf=1 
MXISAR0/XIABE0/XISARFSM0/XI3<0>/XI2/XIN0/MM0 XISAR0/XIABE0/XISARFSM0/XI3<0>/MEM1 XISAR0/XIABE0/XISARFSM0/XI3<0>/ICLK XISAR0/XIABE0/XISARFSM0/XI3<0>/XI2/N0 VSS N1LVT m=1 l=1.8e-08 nfin=4 nf=1 
MXISAR0/XIABE0/XISARFSM0/XI3<0>/XI2/XIN1/MM0 XISAR0/XIABE0/XISARFSM0/XI3<0>/XI2/N0 XISAR0/XIABE0/XISARFSM0/XI3<0>/LATCH VSS VSS N1LVT m=1 l=1.8e-08 nfin=4 nf=1 
MXISAR0/XIABE0/XISARFSM0/XI3<0>/XI2/XIP0/MM0 XISAR0/XIABE0/XISARFSM0/XI3<0>/XI2/N1 XISAR0/XIABE0/XISARFSM0/XI3<0>/LATCH VDDSAR VDDSAR P1LVT m=1 l=1.8e-08 nfin=4 nf=1 
MXISAR0/XIABE0/XISARFSM0/XI3<0>/XI2/XIP1/MM0 XISAR0/XIABE0/XISARFSM0/XI3<0>/MEM1 XISAR0/XIABE0/XISARFSM0/XI3<0>/ICLKB XISAR0/XIABE0/XISARFSM0/XI3<0>/XI2/N1 VDDSAR P1LVT m=1 l=1.8e-08 nfin=4 nf=1 
MXISAR0/XIABE0/XISARFSM0/XI3<0>/XI4/XIN0/MM0 SB<0> XISAR0/XIABE0/XISARFSM0/XI3<0>/MEM2 XISAR0/XIABE0/XISARFSM0/XI3<0>/XI4/N0 VSS N1LVT m=1 l=1.8e-08 nfin=4 nf=2 
MXISAR0/XIABE0/XISARFSM0/XI3<0>/XI4/XIN1/MM0 XISAR0/XIABE0/XISARFSM0/XI3<0>/XI4/N0 XISAR0/XIABE0/XISARFSM0/XI3<0>/IRSTB VSS VSS N1LVT m=1 l=1.8e-08 nfin=4 nf=2 
MXISAR0/XIABE0/XISARFSM0/XI3<0>/XI4/XIP1/MM0 SB<0> XISAR0/XIABE0/XISARFSM0/XI3<0>/IRSTB VDDSAR VDDSAR P1LVT m=1 l=1.8e-08 nfin=4 nf=2 
MXISAR0/XIABE0/XISARFSM0/XI3<0>/XI4/XIP0/MM0 SB<0> XISAR0/XIABE0/XISARFSM0/XI3<0>/MEM2 VDDSAR VDDSAR P1LVT m=1 l=1.8e-08 nfin=4 nf=2 
MXISAR0/XIABE0/XISARFSM0/XI3<0>/XI1/XIN0/MM0 XISAR0/XIABE0/XISARFSM0/XI3<0>/LATCH XISAR0/XIABE0/XISARFSM0/XI3<0>/MEM1 XISAR0/XIABE0/XISARFSM0/XI3<0>/XI1/N0 VSS N1LVT m=1 l=1.8e-08 nfin=4 nf=2 
MXISAR0/XIABE0/XISARFSM0/XI3<0>/XI1/XIN1/MM0 XISAR0/XIABE0/XISARFSM0/XI3<0>/XI1/N0 XISAR0/XIABE0/XISARFSM0/XI3<0>/IRSTB VSS VSS N1LVT m=1 l=1.8e-08 nfin=4 nf=2 
MXISAR0/XIABE0/XISARFSM0/XI3<0>/XI1/XIP1/MM0 XISAR0/XIABE0/XISARFSM0/XI3<0>/LATCH XISAR0/XIABE0/XISARFSM0/XI3<0>/IRSTB VDDSAR VDDSAR P1LVT m=1 l=1.8e-08 nfin=4 nf=2 
MXISAR0/XIABE0/XISARFSM0/XI3<0>/XI1/XIP0/MM0 XISAR0/XIABE0/XISARFSM0/XI3<0>/LATCH XISAR0/XIABE0/XISARFSM0/XI3<0>/MEM1 VDDSAR VDDSAR P1LVT m=1 l=1.8e-08 nfin=4 nf=2 
MXISAR0/XIABE0/XISARFSM0/XI3<0>/XI3/XIN0/MM0 XISAR0/XIABE0/XISARFSM0/XI3<0>/MEM2 XISAR0/XIABE0/XISARFSM0/XI3<0>/ICLK XISAR0/XIABE0/XISARFSM0/XI3<0>/XI3/N0 VSS N1LVT m=1 l=1.8e-08 nfin=4 nf=2 
MXISAR0/XIABE0/XISARFSM0/XI3<0>/XI3/XIN1/MM0 XISAR0/XIABE0/XISARFSM0/XI3<0>/XI3/N0 XISAR0/XIABE0/XISARFSM0/XI3<0>/LATCH VSS VSS N1LVT m=1 l=1.8e-08 nfin=4 nf=2 
MXISAR0/XIABE0/XISARFSM0/XI3<0>/XI3/XIP0/MM0 XISAR0/XIABE0/XISARFSM0/XI3<0>/XI3/N1 XISAR0/XIABE0/XISARFSM0/XI3<0>/LATCH VDDSAR VDDSAR P1LVT m=1 l=1.8e-08 nfin=4 nf=2 
MXISAR0/XIABE0/XISARFSM0/XI3<0>/XI3/XIP1/MM0 XISAR0/XIABE0/XISARFSM0/XI3<0>/MEM2 XISAR0/XIABE0/XISARFSM0/XI3<0>/ICLKB XISAR0/XIABE0/XISARFSM0/XI3<0>/XI3/N1 VDDSAR P1LVT m=1 l=1.8e-08 nfin=4 nf=2 
MXISAR0/XIABE0/XISARFSM0/XI3<0>/XI0/XIN0/MM0 XISAR0/XIABE0/XISARFSM0/XI3<0>/MEM1 XISAR0/XIABE0/XISARFSM0/XI3<0>/ICLKB XISAR0/XIABE0/XISARFSM0/XI3<0>/XI0/N0 VSS N1LVT m=1 l=1.8e-08 nfin=4 nf=2 
MXISAR0/XIABE0/XISARFSM0/XI3<0>/XI0/XIN1/MM0 XISAR0/XIABE0/XISARFSM0/XI3<0>/XI0/N0 SB<1> VSS VSS N1LVT m=1 l=1.8e-08 nfin=4 nf=2 